
---------- Begin Simulation Statistics ----------
final_tick                                83828578000                       # Number of ticks from beginning of simulation (restored from checkpoints and never reset)
host_inst_rate                                 273315                       # Simulator instruction rate (inst/s)
host_mem_usage                                 726784                       # Number of bytes of host memory used
host_op_rate                                   273861                       # Simulator op (including micro ops) rate (op/s)
host_seconds                                   365.88                       # Real time elapsed on the host
host_tick_rate                              229116284                       # Simulator tick rate (ticks/s)
sim_freq                                 1000000000000                       # Frequency of simulated ticks
sim_insts                                   100000000                       # Number of instructions simulated
sim_ops                                     100199496                       # Number of ops (including micro ops) simulated
sim_seconds                                  0.083829                       # Number of seconds simulated
sim_ticks                                 83828578000                       # Number of ticks simulated
system.cpu.committedInsts                   100000000                       # Number of instructions committed
system.cpu.committedOps                     100199496                       # Number of ops (including micro ops) committed
system.cpu.cpi                               1.676572                       # CPI: cycles per instruction
system.cpu.discardedOps                        197559                       # Number of ops (including micro ops) which were discarded before commit
system.cpu.idleCycles                        34716266                       # Total number of cycles that the object has spent stopped
system.cpu.ipc                               0.596455                       # IPC: instructions per cycle
system.cpu.numCycles                        167657156                       # number of cpu cycles simulated
system.cpu.numFetchSuspends                         0                       # Number of times Execute suspended instruction fetching
system.cpu.numWorkItemsCompleted                    0                       # number of work items this cpu completed
system.cpu.numWorkItemsStarted                      0                       # number of work items this cpu started
system.cpu.op_class_0::No_OpClass                   0      0.00%      0.00% # Class of committed instruction
system.cpu.op_class_0::IntAlu                46438739     46.35%     46.35% # Class of committed instruction
system.cpu.op_class_0::IntMult                  20720      0.02%     46.37% # Class of committed instruction
system.cpu.op_class_0::IntDiv                       0      0.00%     46.37% # Class of committed instruction
system.cpu.op_class_0::FloatAdd                     0      0.00%     46.37% # Class of committed instruction
system.cpu.op_class_0::FloatCmp                     0      0.00%     46.37% # Class of committed instruction
system.cpu.op_class_0::FloatCvt                     0      0.00%     46.37% # Class of committed instruction
system.cpu.op_class_0::FloatMult                    0      0.00%     46.37% # Class of committed instruction
system.cpu.op_class_0::FloatMultAcc                 0      0.00%     46.37% # Class of committed instruction
system.cpu.op_class_0::FloatDiv                     0      0.00%     46.37% # Class of committed instruction
system.cpu.op_class_0::FloatMisc                    0      0.00%     46.37% # Class of committed instruction
system.cpu.op_class_0::FloatSqrt                    0      0.00%     46.37% # Class of committed instruction
system.cpu.op_class_0::SimdAdd                      0      0.00%     46.37% # Class of committed instruction
system.cpu.op_class_0::SimdAddAcc                   0      0.00%     46.37% # Class of committed instruction
system.cpu.op_class_0::SimdAlu                      0      0.00%     46.37% # Class of committed instruction
system.cpu.op_class_0::SimdCmp                      0      0.00%     46.37% # Class of committed instruction
system.cpu.op_class_0::SimdCvt                      0      0.00%     46.37% # Class of committed instruction
system.cpu.op_class_0::SimdMisc                     0      0.00%     46.37% # Class of committed instruction
system.cpu.op_class_0::SimdMult                     0      0.00%     46.37% # Class of committed instruction
system.cpu.op_class_0::SimdMultAcc                  0      0.00%     46.37% # Class of committed instruction
system.cpu.op_class_0::SimdShift                    0      0.00%     46.37% # Class of committed instruction
system.cpu.op_class_0::SimdShiftAcc                 0      0.00%     46.37% # Class of committed instruction
system.cpu.op_class_0::SimdDiv                      0      0.00%     46.37% # Class of committed instruction
system.cpu.op_class_0::SimdSqrt                     0      0.00%     46.37% # Class of committed instruction
system.cpu.op_class_0::SimdFloatAdd                 0      0.00%     46.37% # Class of committed instruction
system.cpu.op_class_0::SimdFloatAlu                 0      0.00%     46.37% # Class of committed instruction
system.cpu.op_class_0::SimdFloatCmp                 0      0.00%     46.37% # Class of committed instruction
system.cpu.op_class_0::SimdFloatCvt                 0      0.00%     46.37% # Class of committed instruction
system.cpu.op_class_0::SimdFloatDiv                 0      0.00%     46.37% # Class of committed instruction
system.cpu.op_class_0::SimdFloatMisc                1      0.00%     46.37% # Class of committed instruction
system.cpu.op_class_0::SimdFloatMult                0      0.00%     46.37% # Class of committed instruction
system.cpu.op_class_0::SimdFloatMultAcc             0      0.00%     46.37% # Class of committed instruction
system.cpu.op_class_0::SimdFloatSqrt                0      0.00%     46.37% # Class of committed instruction
system.cpu.op_class_0::SimdReduceAdd                0      0.00%     46.37% # Class of committed instruction
system.cpu.op_class_0::SimdReduceAlu                0      0.00%     46.37% # Class of committed instruction
system.cpu.op_class_0::SimdReduceCmp                0      0.00%     46.37% # Class of committed instruction
system.cpu.op_class_0::SimdFloatReduceAdd            0      0.00%     46.37% # Class of committed instruction
system.cpu.op_class_0::SimdFloatReduceCmp            0      0.00%     46.37% # Class of committed instruction
system.cpu.op_class_0::SimdAes                      0      0.00%     46.37% # Class of committed instruction
system.cpu.op_class_0::SimdAesMix                   0      0.00%     46.37% # Class of committed instruction
system.cpu.op_class_0::SimdSha1Hash                 0      0.00%     46.37% # Class of committed instruction
system.cpu.op_class_0::SimdSha1Hash2                0      0.00%     46.37% # Class of committed instruction
system.cpu.op_class_0::SimdSha256Hash               0      0.00%     46.37% # Class of committed instruction
system.cpu.op_class_0::SimdSha256Hash2              0      0.00%     46.37% # Class of committed instruction
system.cpu.op_class_0::SimdShaSigma2                0      0.00%     46.37% # Class of committed instruction
system.cpu.op_class_0::SimdShaSigma3                0      0.00%     46.37% # Class of committed instruction
system.cpu.op_class_0::SimdPredAlu                  0      0.00%     46.37% # Class of committed instruction
system.cpu.op_class_0::MemRead               42753845     42.67%     89.04% # Class of committed instruction
system.cpu.op_class_0::MemWrite              10986191     10.96%    100.00% # Class of committed instruction
system.cpu.op_class_0::FloatMemRead                 0      0.00%    100.00% # Class of committed instruction
system.cpu.op_class_0::FloatMemWrite                0      0.00%    100.00% # Class of committed instruction
system.cpu.op_class_0::IprAccess                    0      0.00%    100.00% # Class of committed instruction
system.cpu.op_class_0::InstPrefetch                 0      0.00%    100.00% # Class of committed instruction
system.cpu.op_class_0::total                100199496                       # Class of committed instruction
system.cpu.tickCycles                       132940890                       # Number of cycles that the object actually ticked
system.cpu.workload.numSyscalls                    85                       # Number of system calls
system.membus.snoop_filter.hit_multi_requests            0                       # Number of requests hitting in the snoop filter with multiple (>1) holders of the requested data.
system.membus.snoop_filter.hit_multi_snoops            0                       # Number of snoops hitting in the snoop filter with multiple (>1) holders of the requested data.
system.membus.snoop_filter.hit_single_requests       168849                       # Number of requests hitting in the snoop filter with a single holder of the requested data.
system.membus.snoop_filter.hit_single_snoops            0                       # Number of snoops hitting in the snoop filter with a single holder of the requested data.
system.membus.snoop_filter.tot_requests        370860                       # Total number of requests made to the snoop filter.
system.membus.snoop_filter.tot_snoops               0                       # Total number of snoops made to the snoop filter.
system.tol2bus.snoop_filter.hit_multi_requests          199                       # Number of requests hitting in the snoop filter with multiple (>1) holders of the requested data.
system.tol2bus.snoop_filter.hit_multi_snoops            0                       # Number of snoops hitting in the snoop filter with multiple (>1) holders of the requested data.
system.tol2bus.snoop_filter.hit_single_requests       683771                       # Number of requests hitting in the snoop filter with a single holder of the requested data.
system.tol2bus.snoop_filter.hit_single_snoops          579                       # Number of snoops hitting in the snoop filter with a single holder of the requested data.
system.tol2bus.snoop_filter.tot_requests      1369068                       # Total number of requests made to the snoop filter.
system.tol2bus.snoop_filter.tot_snoops            579                       # Total number of snoops made to the snoop filter.
system.clk_domain.clock                          1000                       # Clock period in ticks
system.cpu.branchPred.lookups                 4397439                       # Number of BP lookups
system.cpu.branchPred.condPredicted           3642771                       # Number of conditional branches predicted
system.cpu.branchPred.condIncorrect             83182                       # Number of conditional branches incorrect
system.cpu.branchPred.BTBLookups              2112924                       # Number of BTB lookups
system.cpu.branchPred.BTBHits                 2110703                       # Number of BTB hits
system.cpu.branchPred.BTBHitPct             99.894885                       # BTB Hit Percentage
system.cpu.branchPred.RASUsed                   66042                       # Number of times the RAS was used to get a target.
system.cpu.branchPred.RASIncorrect                 15                       # Number of incorrect RAS predictions.
system.cpu.branchPred.indirectLookups             688                       # Number of indirect predictor lookups.
system.cpu.branchPred.indirectHits                293                       # Number of indirect target hits.
system.cpu.branchPred.indirectMisses              395                       # Number of indirect misses.
system.cpu.branchPred.indirectMispredicted          167                       # Number of mispredicted indirect branches.
system.cpu.dcache.demand_hits::.cpu.data     51414491                       # number of demand (read+write) hits
system.cpu.dcache.demand_hits::total         51414491                       # number of demand (read+write) hits
system.cpu.dcache.overall_hits::.cpu.data     51414994                       # number of overall hits
system.cpu.dcache.overall_hits::total        51414994                       # number of overall hits
system.cpu.dcache.demand_misses::.cpu.data       737473                       # number of demand (read+write) misses
system.cpu.dcache.demand_misses::total         737473                       # number of demand (read+write) misses
system.cpu.dcache.overall_misses::.cpu.data       745389                       # number of overall misses
system.cpu.dcache.overall_misses::total        745389                       # number of overall misses
system.cpu.dcache.demand_miss_latency::.cpu.data  24695586000                       # number of demand (read+write) miss cycles
system.cpu.dcache.demand_miss_latency::total  24695586000                       # number of demand (read+write) miss cycles
system.cpu.dcache.overall_miss_latency::.cpu.data  24695586000                       # number of overall miss cycles
system.cpu.dcache.overall_miss_latency::total  24695586000                       # number of overall miss cycles
system.cpu.dcache.demand_accesses::.cpu.data     52151964                       # number of demand (read+write) accesses
system.cpu.dcache.demand_accesses::total     52151964                       # number of demand (read+write) accesses
system.cpu.dcache.overall_accesses::.cpu.data     52160383                       # number of overall (read+write) accesses
system.cpu.dcache.overall_accesses::total     52160383                       # number of overall (read+write) accesses
system.cpu.dcache.demand_miss_rate::.cpu.data     0.014141                       # miss rate for demand accesses
system.cpu.dcache.demand_miss_rate::total     0.014141                       # miss rate for demand accesses
system.cpu.dcache.overall_miss_rate::.cpu.data     0.014290                       # miss rate for overall accesses
system.cpu.dcache.overall_miss_rate::total     0.014290                       # miss rate for overall accesses
system.cpu.dcache.demand_avg_miss_latency::.cpu.data 33486.766295                       # average overall miss latency
system.cpu.dcache.demand_avg_miss_latency::total 33486.766295                       # average overall miss latency
system.cpu.dcache.overall_avg_miss_latency::.cpu.data 33131.138238                       # average overall miss latency
system.cpu.dcache.overall_avg_miss_latency::total 33131.138238                       # average overall miss latency
system.cpu.dcache.blocked_cycles::no_mshrs       208538                       # number of cycles access was blocked
system.cpu.dcache.blocked_cycles::no_targets            0                       # number of cycles access was blocked
system.cpu.dcache.blocked::no_mshrs              3197                       # number of cycles access was blocked
system.cpu.dcache.blocked::no_targets               0                       # number of cycles access was blocked
system.cpu.dcache.avg_blocked_cycles::no_mshrs    65.229277                       # average number of cycles each access was blocked
system.cpu.dcache.avg_blocked_cycles::no_targets          nan                       # average number of cycles each access was blocked
system.cpu.dcache.writebacks::.writebacks       607450                       # number of writebacks
system.cpu.dcache.writebacks::total            607450                       # number of writebacks
system.cpu.dcache.demand_mshr_hits::.cpu.data        60764                       # number of demand (read+write) MSHR hits
system.cpu.dcache.demand_mshr_hits::total        60764                       # number of demand (read+write) MSHR hits
system.cpu.dcache.overall_mshr_hits::.cpu.data        60764                       # number of overall MSHR hits
system.cpu.dcache.overall_mshr_hits::total        60764                       # number of overall MSHR hits
system.cpu.dcache.demand_mshr_misses::.cpu.data       676709                       # number of demand (read+write) MSHR misses
system.cpu.dcache.demand_mshr_misses::total       676709                       # number of demand (read+write) MSHR misses
system.cpu.dcache.overall_mshr_misses::.cpu.data       684618                       # number of overall MSHR misses
system.cpu.dcache.overall_mshr_misses::total       684618                       # number of overall MSHR misses
system.cpu.dcache.demand_mshr_miss_latency::.cpu.data  22420053000                       # number of demand (read+write) MSHR miss cycles
system.cpu.dcache.demand_mshr_miss_latency::total  22420053000                       # number of demand (read+write) MSHR miss cycles
system.cpu.dcache.overall_mshr_miss_latency::.cpu.data  23109054499                       # number of overall MSHR miss cycles
system.cpu.dcache.overall_mshr_miss_latency::total  23109054499                       # number of overall MSHR miss cycles
system.cpu.dcache.demand_mshr_miss_rate::.cpu.data     0.012976                       # mshr miss rate for demand accesses
system.cpu.dcache.demand_mshr_miss_rate::total     0.012976                       # mshr miss rate for demand accesses
system.cpu.dcache.overall_mshr_miss_rate::.cpu.data     0.013125                       # mshr miss rate for overall accesses
system.cpu.dcache.overall_mshr_miss_rate::total     0.013125                       # mshr miss rate for overall accesses
system.cpu.dcache.demand_avg_mshr_miss_latency::.cpu.data 33131.010523                       # average overall mshr miss latency
system.cpu.dcache.demand_avg_mshr_miss_latency::total 33131.010523                       # average overall mshr miss latency
system.cpu.dcache.overall_avg_mshr_miss_latency::.cpu.data 33754.669756                       # average overall mshr miss latency
system.cpu.dcache.overall_avg_mshr_miss_latency::total 33754.669756                       # average overall mshr miss latency
system.cpu.dcache.replacements                 683597                       # number of replacements
system.cpu.dcache.ReadReq_hits::.cpu.data     40784946                       # number of ReadReq hits
system.cpu.dcache.ReadReq_hits::total        40784946                       # number of ReadReq hits
system.cpu.dcache.ReadReq_misses::.cpu.data       389963                       # number of ReadReq misses
system.cpu.dcache.ReadReq_misses::total        389963                       # number of ReadReq misses
system.cpu.dcache.ReadReq_miss_latency::.cpu.data   9013154000                       # number of ReadReq miss cycles
system.cpu.dcache.ReadReq_miss_latency::total   9013154000                       # number of ReadReq miss cycles
system.cpu.dcache.ReadReq_accesses::.cpu.data     41174909                       # number of ReadReq accesses(hits+misses)
system.cpu.dcache.ReadReq_accesses::total     41174909                       # number of ReadReq accesses(hits+misses)
system.cpu.dcache.ReadReq_miss_rate::.cpu.data     0.009471                       # miss rate for ReadReq accesses
system.cpu.dcache.ReadReq_miss_rate::total     0.009471                       # miss rate for ReadReq accesses
system.cpu.dcache.ReadReq_avg_miss_latency::.cpu.data 23112.844039                       # average ReadReq miss latency
system.cpu.dcache.ReadReq_avg_miss_latency::total 23112.844039                       # average ReadReq miss latency
system.cpu.dcache.ReadReq_mshr_hits::.cpu.data          573                       # number of ReadReq MSHR hits
system.cpu.dcache.ReadReq_mshr_hits::total          573                       # number of ReadReq MSHR hits
system.cpu.dcache.ReadReq_mshr_misses::.cpu.data       389390                       # number of ReadReq MSHR misses
system.cpu.dcache.ReadReq_mshr_misses::total       389390                       # number of ReadReq MSHR misses
system.cpu.dcache.ReadReq_mshr_miss_latency::.cpu.data   8597872000                       # number of ReadReq MSHR miss cycles
system.cpu.dcache.ReadReq_mshr_miss_latency::total   8597872000                       # number of ReadReq MSHR miss cycles
system.cpu.dcache.ReadReq_mshr_miss_rate::.cpu.data     0.009457                       # mshr miss rate for ReadReq accesses
system.cpu.dcache.ReadReq_mshr_miss_rate::total     0.009457                       # mshr miss rate for ReadReq accesses
system.cpu.dcache.ReadReq_avg_mshr_miss_latency::.cpu.data 22080.361591                       # average ReadReq mshr miss latency
system.cpu.dcache.ReadReq_avg_mshr_miss_latency::total 22080.361591                       # average ReadReq mshr miss latency
system.cpu.dcache.WriteReq_hits::.cpu.data     10629545                       # number of WriteReq hits
system.cpu.dcache.WriteReq_hits::total       10629545                       # number of WriteReq hits
system.cpu.dcache.WriteReq_misses::.cpu.data       347510                       # number of WriteReq misses
system.cpu.dcache.WriteReq_misses::total       347510                       # number of WriteReq misses
system.cpu.dcache.WriteReq_miss_latency::.cpu.data  15682432000                       # number of WriteReq miss cycles
system.cpu.dcache.WriteReq_miss_latency::total  15682432000                       # number of WriteReq miss cycles
system.cpu.dcache.WriteReq_accesses::.cpu.data     10977055                       # number of WriteReq accesses(hits+misses)
system.cpu.dcache.WriteReq_accesses::total     10977055                       # number of WriteReq accesses(hits+misses)
system.cpu.dcache.WriteReq_miss_rate::.cpu.data     0.031658                       # miss rate for WriteReq accesses
system.cpu.dcache.WriteReq_miss_rate::total     0.031658                       # miss rate for WriteReq accesses
system.cpu.dcache.WriteReq_avg_miss_latency::.cpu.data 45128.002072                       # average WriteReq miss latency
system.cpu.dcache.WriteReq_avg_miss_latency::total 45128.002072                       # average WriteReq miss latency
system.cpu.dcache.WriteReq_mshr_hits::.cpu.data        60191                       # number of WriteReq MSHR hits
system.cpu.dcache.WriteReq_mshr_hits::total        60191                       # number of WriteReq MSHR hits
system.cpu.dcache.WriteReq_mshr_misses::.cpu.data       287319                       # number of WriteReq MSHR misses
system.cpu.dcache.WriteReq_mshr_misses::total       287319                       # number of WriteReq MSHR misses
system.cpu.dcache.WriteReq_mshr_miss_latency::.cpu.data  13822181000                       # number of WriteReq MSHR miss cycles
system.cpu.dcache.WriteReq_mshr_miss_latency::total  13822181000                       # number of WriteReq MSHR miss cycles
system.cpu.dcache.WriteReq_mshr_miss_rate::.cpu.data     0.026175                       # mshr miss rate for WriteReq accesses
system.cpu.dcache.WriteReq_mshr_miss_rate::total     0.026175                       # mshr miss rate for WriteReq accesses
system.cpu.dcache.WriteReq_avg_mshr_miss_latency::.cpu.data 48107.438074                       # average WriteReq mshr miss latency
system.cpu.dcache.WriteReq_avg_mshr_miss_latency::total 48107.438074                       # average WriteReq mshr miss latency
system.cpu.dcache.SoftPFReq_hits::.cpu.data          503                       # number of SoftPFReq hits
system.cpu.dcache.SoftPFReq_hits::total           503                       # number of SoftPFReq hits
system.cpu.dcache.SoftPFReq_misses::.cpu.data         7916                       # number of SoftPFReq misses
system.cpu.dcache.SoftPFReq_misses::total         7916                       # number of SoftPFReq misses
system.cpu.dcache.SoftPFReq_accesses::.cpu.data         8419                       # number of SoftPFReq accesses(hits+misses)
system.cpu.dcache.SoftPFReq_accesses::total         8419                       # number of SoftPFReq accesses(hits+misses)
system.cpu.dcache.SoftPFReq_miss_rate::.cpu.data     0.940254                       # miss rate for SoftPFReq accesses
system.cpu.dcache.SoftPFReq_miss_rate::total     0.940254                       # miss rate for SoftPFReq accesses
system.cpu.dcache.SoftPFReq_mshr_misses::.cpu.data         7909                       # number of SoftPFReq MSHR misses
system.cpu.dcache.SoftPFReq_mshr_misses::total         7909                       # number of SoftPFReq MSHR misses
system.cpu.dcache.SoftPFReq_mshr_miss_latency::.cpu.data    689001499                       # number of SoftPFReq MSHR miss cycles
system.cpu.dcache.SoftPFReq_mshr_miss_latency::total    689001499                       # number of SoftPFReq MSHR miss cycles
system.cpu.dcache.SoftPFReq_mshr_miss_rate::.cpu.data     0.939423                       # mshr miss rate for SoftPFReq accesses
system.cpu.dcache.SoftPFReq_mshr_miss_rate::total     0.939423                       # mshr miss rate for SoftPFReq accesses
system.cpu.dcache.SoftPFReq_avg_mshr_miss_latency::.cpu.data 87116.133392                       # average SoftPFReq mshr miss latency
system.cpu.dcache.SoftPFReq_avg_mshr_miss_latency::total 87116.133392                       # average SoftPFReq mshr miss latency
system.cpu.dcache.LoadLockedReq_hits::.cpu.data           34                       # number of LoadLockedReq hits
system.cpu.dcache.LoadLockedReq_hits::total           34                       # number of LoadLockedReq hits
system.cpu.dcache.LoadLockedReq_misses::.cpu.data            4                       # number of LoadLockedReq misses
system.cpu.dcache.LoadLockedReq_misses::total            4                       # number of LoadLockedReq misses
system.cpu.dcache.LoadLockedReq_miss_latency::.cpu.data       244500                       # number of LoadLockedReq miss cycles
system.cpu.dcache.LoadLockedReq_miss_latency::total       244500                       # number of LoadLockedReq miss cycles
system.cpu.dcache.LoadLockedReq_accesses::.cpu.data           38                       # number of LoadLockedReq accesses(hits+misses)
system.cpu.dcache.LoadLockedReq_accesses::total           38                       # number of LoadLockedReq accesses(hits+misses)
system.cpu.dcache.LoadLockedReq_miss_rate::.cpu.data     0.105263                       # miss rate for LoadLockedReq accesses
system.cpu.dcache.LoadLockedReq_miss_rate::total     0.105263                       # miss rate for LoadLockedReq accesses
system.cpu.dcache.LoadLockedReq_avg_miss_latency::.cpu.data        61125                       # average LoadLockedReq miss latency
system.cpu.dcache.LoadLockedReq_avg_miss_latency::total        61125                       # average LoadLockedReq miss latency
system.cpu.dcache.LoadLockedReq_mshr_misses::.cpu.data            4                       # number of LoadLockedReq MSHR misses
system.cpu.dcache.LoadLockedReq_mshr_misses::total            4                       # number of LoadLockedReq MSHR misses
system.cpu.dcache.LoadLockedReq_mshr_miss_latency::.cpu.data       240500                       # number of LoadLockedReq MSHR miss cycles
system.cpu.dcache.LoadLockedReq_mshr_miss_latency::total       240500                       # number of LoadLockedReq MSHR miss cycles
system.cpu.dcache.LoadLockedReq_mshr_miss_rate::.cpu.data     0.105263                       # mshr miss rate for LoadLockedReq accesses
system.cpu.dcache.LoadLockedReq_mshr_miss_rate::total     0.105263                       # mshr miss rate for LoadLockedReq accesses
system.cpu.dcache.LoadLockedReq_avg_mshr_miss_latency::.cpu.data        60125                       # average LoadLockedReq mshr miss latency
system.cpu.dcache.LoadLockedReq_avg_mshr_miss_latency::total        60125                       # average LoadLockedReq mshr miss latency
system.cpu.dcache.StoreCondReq_hits::.cpu.data           38                       # number of StoreCondReq hits
system.cpu.dcache.StoreCondReq_hits::total           38                       # number of StoreCondReq hits
system.cpu.dcache.StoreCondReq_accesses::.cpu.data           38                       # number of StoreCondReq accesses(hits+misses)
system.cpu.dcache.StoreCondReq_accesses::total           38                       # number of StoreCondReq accesses(hits+misses)
system.cpu.dcache.power_state.pwrStateResidencyTicks::UNDEFINED  83828578000                       # Cumulative time (in ticks) in various power states
system.cpu.dcache.tags.tagsinuse          1007.747847                       # Cycle average of tags in use
system.cpu.dcache.tags.total_refs            52099687                       # Total number of references to valid blocks.
system.cpu.dcache.tags.sampled_refs            684621                       # Sample count of references to valid blocks.
system.cpu.dcache.tags.avg_refs             76.100042                       # Average number of references to valid blocks.
system.cpu.dcache.tags.warmup_cycle            176500                       # Cycle when the warmup percentage was hit.
system.cpu.dcache.tags.occ_blocks::.cpu.data  1007.747847                       # Average occupied blocks per requestor
system.cpu.dcache.tags.occ_percent::.cpu.data     0.984129                       # Average percentage of cache occupancy
system.cpu.dcache.tags.occ_percent::total     0.984129                       # Average percentage of cache occupancy
system.cpu.dcache.tags.occ_task_id_blocks::1024         1024                       # Occupied blocks per task id
system.cpu.dcache.tags.age_task_id_blocks_1024::0          204                       # Occupied blocks per task id
system.cpu.dcache.tags.age_task_id_blocks_1024::1          307                       # Occupied blocks per task id
system.cpu.dcache.tags.age_task_id_blocks_1024::2          511                       # Occupied blocks per task id
system.cpu.dcache.tags.age_task_id_blocks_1024::3            2                       # Occupied blocks per task id
system.cpu.dcache.tags.occ_task_id_percent::1024            1                       # Percentage of cache occupancy per task id
system.cpu.dcache.tags.tag_accesses         105005539                       # Number of tag accesses
system.cpu.dcache.tags.data_accesses        105005539                       # Number of data accesses
system.cpu.dcache.tags.power_state.pwrStateResidencyTicks::UNDEFINED  83828578000                       # Cumulative time (in ticks) in various power states
system.cpu.dtb.instHits                             0                       # ITB inst hits
system.cpu.dtb.instMisses                           0                       # ITB inst misses
system.cpu.dtb.readHits                             0                       # DTB read hits
system.cpu.dtb.readMisses                           0                       # DTB read misses
system.cpu.dtb.writeHits                            0                       # DTB write hits
system.cpu.dtb.writeMisses                          0                       # DTB write misses
system.cpu.dtb.inserts                              0                       # Number of times an entry is inserted into the TLB
system.cpu.dtb.flushTlb                             0                       # Number of times complete TLB was flushed
system.cpu.dtb.flushTlbMva                          0                       # Number of times TLB was flushed by MVA
system.cpu.dtb.flushTlbMvaAsid                      0                       # Number of times TLB was flushed by MVA & ASID
system.cpu.dtb.flushTlbAsid                         0                       # Number of times TLB was flushed by ASID
system.cpu.dtb.flushedEntries                       0                       # Number of entries that have been flushed from TLB
system.cpu.dtb.alignFaults                          0                       # Number of TLB faults due to alignment restrictions
system.cpu.dtb.prefetchFaults                       0                       # Number of TLB faults due to prefetch
system.cpu.dtb.domainFaults                         0                       # Number of TLB faults due to domain restrictions
system.cpu.dtb.permsFaults                          0                       # Number of TLB faults due to permissions restrictions
system.cpu.dtb.readAccesses                         0                       # DTB read accesses
system.cpu.dtb.writeAccesses                        0                       # DTB write accesses
system.cpu.dtb.instAccesses                         0                       # ITB inst accesses
system.cpu.dtb.hits                                 0                       # Total TLB (inst and data) hits
system.cpu.dtb.misses                               0                       # Total TLB (inst and data) misses
system.cpu.dtb.accesses                             0                       # Total TLB (inst and data) accesses
system.cpu.dtb.stage2_mmu.stage2_tlb.instHits            0                       # ITB inst hits
system.cpu.dtb.stage2_mmu.stage2_tlb.instMisses            0                       # ITB inst misses
system.cpu.dtb.stage2_mmu.stage2_tlb.readHits            0                       # DTB read hits
system.cpu.dtb.stage2_mmu.stage2_tlb.readMisses            0                       # DTB read misses
system.cpu.dtb.stage2_mmu.stage2_tlb.writeHits            0                       # DTB write hits
system.cpu.dtb.stage2_mmu.stage2_tlb.writeMisses            0                       # DTB write misses
system.cpu.dtb.stage2_mmu.stage2_tlb.inserts            0                       # Number of times an entry is inserted into the TLB
system.cpu.dtb.stage2_mmu.stage2_tlb.flushTlb            0                       # Number of times complete TLB was flushed
system.cpu.dtb.stage2_mmu.stage2_tlb.flushTlbMva            0                       # Number of times TLB was flushed by MVA
system.cpu.dtb.stage2_mmu.stage2_tlb.flushTlbMvaAsid            0                       # Number of times TLB was flushed by MVA & ASID
system.cpu.dtb.stage2_mmu.stage2_tlb.flushTlbAsid            0                       # Number of times TLB was flushed by ASID
system.cpu.dtb.stage2_mmu.stage2_tlb.flushedEntries            0                       # Number of entries that have been flushed from TLB
system.cpu.dtb.stage2_mmu.stage2_tlb.alignFaults            0                       # Number of TLB faults due to alignment restrictions
system.cpu.dtb.stage2_mmu.stage2_tlb.prefetchFaults            0                       # Number of TLB faults due to prefetch
system.cpu.dtb.stage2_mmu.stage2_tlb.domainFaults            0                       # Number of TLB faults due to domain restrictions
system.cpu.dtb.stage2_mmu.stage2_tlb.permsFaults            0                       # Number of TLB faults due to permissions restrictions
system.cpu.dtb.stage2_mmu.stage2_tlb.readAccesses            0                       # DTB read accesses
system.cpu.dtb.stage2_mmu.stage2_tlb.writeAccesses            0                       # DTB write accesses
system.cpu.dtb.stage2_mmu.stage2_tlb.instAccesses            0                       # ITB inst accesses
system.cpu.dtb.stage2_mmu.stage2_tlb.hits            0                       # Total TLB (inst and data) hits
system.cpu.dtb.stage2_mmu.stage2_tlb.misses            0                       # Total TLB (inst and data) misses
system.cpu.dtb.stage2_mmu.stage2_tlb.accesses            0                       # Total TLB (inst and data) accesses
system.cpu.dtb.stage2_mmu.stage2_tlb.walker.walks            0                       # Table walker walks requested
system.cpu.dtb.stage2_mmu.stage2_tlb.walker.requestOrigin_Requested::Data            0                       # Table walker requests started/completed, data/inst
system.cpu.dtb.stage2_mmu.stage2_tlb.walker.requestOrigin_Requested::Inst            0                       # Table walker requests started/completed, data/inst
system.cpu.dtb.stage2_mmu.stage2_tlb.walker.requestOrigin_Requested::total            0                       # Table walker requests started/completed, data/inst
system.cpu.dtb.stage2_mmu.stage2_tlb.walker.requestOrigin_Completed::Data            0                       # Table walker requests started/completed, data/inst
system.cpu.dtb.stage2_mmu.stage2_tlb.walker.requestOrigin_Completed::Inst            0                       # Table walker requests started/completed, data/inst
system.cpu.dtb.stage2_mmu.stage2_tlb.walker.requestOrigin_Completed::total            0                       # Table walker requests started/completed, data/inst
system.cpu.dtb.stage2_mmu.stage2_tlb.walker.requestOrigin::total            0                       # Table walker requests started/completed, data/inst
system.cpu.dtb.stage2_mmu.stage2_tlb.walker.power_state.pwrStateResidencyTicks::UNDEFINED  83828578000                       # Cumulative time (in ticks) in various power states
system.cpu.dtb.walker.walks                         0                       # Table walker walks requested
system.cpu.dtb.walker.requestOrigin_Requested::Data            0                       # Table walker requests started/completed, data/inst
system.cpu.dtb.walker.requestOrigin_Requested::Inst            0                       # Table walker requests started/completed, data/inst
system.cpu.dtb.walker.requestOrigin_Requested::total            0                       # Table walker requests started/completed, data/inst
system.cpu.dtb.walker.requestOrigin_Completed::Data            0                       # Table walker requests started/completed, data/inst
system.cpu.dtb.walker.requestOrigin_Completed::Inst            0                       # Table walker requests started/completed, data/inst
system.cpu.dtb.walker.requestOrigin_Completed::total            0                       # Table walker requests started/completed, data/inst
system.cpu.dtb.walker.requestOrigin::total            0                       # Table walker requests started/completed, data/inst
system.cpu.dtb.walker.power_state.pwrStateResidencyTicks::UNDEFINED  83828578000                       # Cumulative time (in ticks) in various power states
system.cpu.fetch2.intInstructions            42703860                       # Number of integer instructions successfully decoded
system.cpu.fetch2.fpInstructions                    0                       # Number of floating point instructions successfully decoded
system.cpu.fetch2.vecInstructions                   0                       # Number of SIMD instructions successfully decoded
system.cpu.fetch2.loadInstructions           43555110                       # Number of memory load instructions successfully decoded
system.cpu.fetch2.storeInstructions          11057175                       # Number of memory store instructions successfully decoded
system.cpu.fetch2.amoInstructions                   0                       # Number of memory atomic instructions successfully decoded
system.cpu.icache.demand_hits::.cpu.inst     10235675                       # number of demand (read+write) hits
system.cpu.icache.demand_hits::total         10235675                       # number of demand (read+write) hits
system.cpu.icache.overall_hits::.cpu.inst     10235675                       # number of overall hits
system.cpu.icache.overall_hits::total        10235675                       # number of overall hits
system.cpu.icache.demand_misses::.cpu.inst          677                       # number of demand (read+write) misses
system.cpu.icache.demand_misses::total            677                       # number of demand (read+write) misses
system.cpu.icache.overall_misses::.cpu.inst          677                       # number of overall misses
system.cpu.icache.overall_misses::total           677                       # number of overall misses
system.cpu.icache.demand_miss_latency::.cpu.inst     53697000                       # number of demand (read+write) miss cycles
system.cpu.icache.demand_miss_latency::total     53697000                       # number of demand (read+write) miss cycles
system.cpu.icache.overall_miss_latency::.cpu.inst     53697000                       # number of overall miss cycles
system.cpu.icache.overall_miss_latency::total     53697000                       # number of overall miss cycles
system.cpu.icache.demand_accesses::.cpu.inst     10236352                       # number of demand (read+write) accesses
system.cpu.icache.demand_accesses::total     10236352                       # number of demand (read+write) accesses
system.cpu.icache.overall_accesses::.cpu.inst     10236352                       # number of overall (read+write) accesses
system.cpu.icache.overall_accesses::total     10236352                       # number of overall (read+write) accesses
system.cpu.icache.demand_miss_rate::.cpu.inst     0.000066                       # miss rate for demand accesses
system.cpu.icache.demand_miss_rate::total     0.000066                       # miss rate for demand accesses
system.cpu.icache.overall_miss_rate::.cpu.inst     0.000066                       # miss rate for overall accesses
system.cpu.icache.overall_miss_rate::total     0.000066                       # miss rate for overall accesses
system.cpu.icache.demand_avg_miss_latency::.cpu.inst 79316.100443                       # average overall miss latency
system.cpu.icache.demand_avg_miss_latency::total 79316.100443                       # average overall miss latency
system.cpu.icache.overall_avg_miss_latency::.cpu.inst 79316.100443                       # average overall miss latency
system.cpu.icache.overall_avg_miss_latency::total 79316.100443                       # average overall miss latency
system.cpu.icache.blocked_cycles::no_mshrs            0                       # number of cycles access was blocked
system.cpu.icache.blocked_cycles::no_targets            0                       # number of cycles access was blocked
system.cpu.icache.blocked::no_mshrs                 0                       # number of cycles access was blocked
system.cpu.icache.blocked::no_targets               0                       # number of cycles access was blocked
system.cpu.icache.avg_blocked_cycles::no_mshrs          nan                       # average number of cycles each access was blocked
system.cpu.icache.avg_blocked_cycles::no_targets          nan                       # average number of cycles each access was blocked
system.cpu.icache.writebacks::.writebacks          172                       # number of writebacks
system.cpu.icache.writebacks::total               172                       # number of writebacks
system.cpu.icache.demand_mshr_misses::.cpu.inst          677                       # number of demand (read+write) MSHR misses
system.cpu.icache.demand_mshr_misses::total          677                       # number of demand (read+write) MSHR misses
system.cpu.icache.overall_mshr_misses::.cpu.inst          677                       # number of overall MSHR misses
system.cpu.icache.overall_mshr_misses::total          677                       # number of overall MSHR misses
system.cpu.icache.demand_mshr_miss_latency::.cpu.inst     53020000                       # number of demand (read+write) MSHR miss cycles
system.cpu.icache.demand_mshr_miss_latency::total     53020000                       # number of demand (read+write) MSHR miss cycles
system.cpu.icache.overall_mshr_miss_latency::.cpu.inst     53020000                       # number of overall MSHR miss cycles
system.cpu.icache.overall_mshr_miss_latency::total     53020000                       # number of overall MSHR miss cycles
system.cpu.icache.demand_mshr_miss_rate::.cpu.inst     0.000066                       # mshr miss rate for demand accesses
system.cpu.icache.demand_mshr_miss_rate::total     0.000066                       # mshr miss rate for demand accesses
system.cpu.icache.overall_mshr_miss_rate::.cpu.inst     0.000066                       # mshr miss rate for overall accesses
system.cpu.icache.overall_mshr_miss_rate::total     0.000066                       # mshr miss rate for overall accesses
system.cpu.icache.demand_avg_mshr_miss_latency::.cpu.inst 78316.100443                       # average overall mshr miss latency
system.cpu.icache.demand_avg_mshr_miss_latency::total 78316.100443                       # average overall mshr miss latency
system.cpu.icache.overall_avg_mshr_miss_latency::.cpu.inst 78316.100443                       # average overall mshr miss latency
system.cpu.icache.overall_avg_mshr_miss_latency::total 78316.100443                       # average overall mshr miss latency
system.cpu.icache.replacements                    172                       # number of replacements
system.cpu.icache.ReadReq_hits::.cpu.inst     10235675                       # number of ReadReq hits
system.cpu.icache.ReadReq_hits::total        10235675                       # number of ReadReq hits
system.cpu.icache.ReadReq_misses::.cpu.inst          677                       # number of ReadReq misses
system.cpu.icache.ReadReq_misses::total           677                       # number of ReadReq misses
system.cpu.icache.ReadReq_miss_latency::.cpu.inst     53697000                       # number of ReadReq miss cycles
system.cpu.icache.ReadReq_miss_latency::total     53697000                       # number of ReadReq miss cycles
system.cpu.icache.ReadReq_accesses::.cpu.inst     10236352                       # number of ReadReq accesses(hits+misses)
system.cpu.icache.ReadReq_accesses::total     10236352                       # number of ReadReq accesses(hits+misses)
system.cpu.icache.ReadReq_miss_rate::.cpu.inst     0.000066                       # miss rate for ReadReq accesses
system.cpu.icache.ReadReq_miss_rate::total     0.000066                       # miss rate for ReadReq accesses
system.cpu.icache.ReadReq_avg_miss_latency::.cpu.inst 79316.100443                       # average ReadReq miss latency
system.cpu.icache.ReadReq_avg_miss_latency::total 79316.100443                       # average ReadReq miss latency
system.cpu.icache.ReadReq_mshr_misses::.cpu.inst          677                       # number of ReadReq MSHR misses
system.cpu.icache.ReadReq_mshr_misses::total          677                       # number of ReadReq MSHR misses
system.cpu.icache.ReadReq_mshr_miss_latency::.cpu.inst     53020000                       # number of ReadReq MSHR miss cycles
system.cpu.icache.ReadReq_mshr_miss_latency::total     53020000                       # number of ReadReq MSHR miss cycles
system.cpu.icache.ReadReq_mshr_miss_rate::.cpu.inst     0.000066                       # mshr miss rate for ReadReq accesses
system.cpu.icache.ReadReq_mshr_miss_rate::total     0.000066                       # mshr miss rate for ReadReq accesses
system.cpu.icache.ReadReq_avg_mshr_miss_latency::.cpu.inst 78316.100443                       # average ReadReq mshr miss latency
system.cpu.icache.ReadReq_avg_mshr_miss_latency::total 78316.100443                       # average ReadReq mshr miss latency
system.cpu.icache.power_state.pwrStateResidencyTicks::UNDEFINED  83828578000                       # Cumulative time (in ticks) in various power states
system.cpu.icache.tags.tagsinuse           478.229170                       # Cycle average of tags in use
system.cpu.icache.tags.total_refs            10236352                       # Total number of references to valid blocks.
system.cpu.icache.tags.sampled_refs               677                       # Sample count of references to valid blocks.
system.cpu.icache.tags.avg_refs          15120.165436                       # Average number of references to valid blocks.
system.cpu.icache.tags.warmup_cycle             87500                       # Cycle when the warmup percentage was hit.
system.cpu.icache.tags.occ_blocks::.cpu.inst   478.229170                       # Average occupied blocks per requestor
system.cpu.icache.tags.occ_percent::.cpu.inst     0.934041                       # Average percentage of cache occupancy
system.cpu.icache.tags.occ_percent::total     0.934041                       # Average percentage of cache occupancy
system.cpu.icache.tags.occ_task_id_blocks::1024          505                       # Occupied blocks per task id
system.cpu.icache.tags.age_task_id_blocks_1024::3          107                       # Occupied blocks per task id
system.cpu.icache.tags.age_task_id_blocks_1024::4          398                       # Occupied blocks per task id
system.cpu.icache.tags.occ_task_id_percent::1024     0.986328                       # Percentage of cache occupancy per task id
system.cpu.icache.tags.tag_accesses         163782309                       # Number of tag accesses
system.cpu.icache.tags.data_accesses        163782309                       # Number of data accesses
system.cpu.icache.tags.power_state.pwrStateResidencyTicks::UNDEFINED  83828578000                       # Cumulative time (in ticks) in various power states
system.cpu.itb.instHits                             0                       # ITB inst hits
system.cpu.itb.instMisses                           0                       # ITB inst misses
system.cpu.itb.readHits                             0                       # DTB read hits
system.cpu.itb.readMisses                           0                       # DTB read misses
system.cpu.itb.writeHits                            0                       # DTB write hits
system.cpu.itb.writeMisses                          0                       # DTB write misses
system.cpu.itb.inserts                              0                       # Number of times an entry is inserted into the TLB
system.cpu.itb.flushTlb                             0                       # Number of times complete TLB was flushed
system.cpu.itb.flushTlbMva                          0                       # Number of times TLB was flushed by MVA
system.cpu.itb.flushTlbMvaAsid                      0                       # Number of times TLB was flushed by MVA & ASID
system.cpu.itb.flushTlbAsid                         0                       # Number of times TLB was flushed by ASID
system.cpu.itb.flushedEntries                       0                       # Number of entries that have been flushed from TLB
system.cpu.itb.alignFaults                          0                       # Number of TLB faults due to alignment restrictions
system.cpu.itb.prefetchFaults                       0                       # Number of TLB faults due to prefetch
system.cpu.itb.domainFaults                         0                       # Number of TLB faults due to domain restrictions
system.cpu.itb.permsFaults                          0                       # Number of TLB faults due to permissions restrictions
system.cpu.itb.readAccesses                         0                       # DTB read accesses
system.cpu.itb.writeAccesses                        0                       # DTB write accesses
system.cpu.itb.instAccesses                         0                       # ITB inst accesses
system.cpu.itb.hits                                 0                       # Total TLB (inst and data) hits
system.cpu.itb.misses                               0                       # Total TLB (inst and data) misses
system.cpu.itb.accesses                             0                       # Total TLB (inst and data) accesses
system.cpu.itb.stage2_mmu.stage2_tlb.instHits            0                       # ITB inst hits
system.cpu.itb.stage2_mmu.stage2_tlb.instMisses            0                       # ITB inst misses
system.cpu.itb.stage2_mmu.stage2_tlb.readHits            0                       # DTB read hits
system.cpu.itb.stage2_mmu.stage2_tlb.readMisses            0                       # DTB read misses
system.cpu.itb.stage2_mmu.stage2_tlb.writeHits            0                       # DTB write hits
system.cpu.itb.stage2_mmu.stage2_tlb.writeMisses            0                       # DTB write misses
system.cpu.itb.stage2_mmu.stage2_tlb.inserts            0                       # Number of times an entry is inserted into the TLB
system.cpu.itb.stage2_mmu.stage2_tlb.flushTlb            0                       # Number of times complete TLB was flushed
system.cpu.itb.stage2_mmu.stage2_tlb.flushTlbMva            0                       # Number of times TLB was flushed by MVA
system.cpu.itb.stage2_mmu.stage2_tlb.flushTlbMvaAsid            0                       # Number of times TLB was flushed by MVA & ASID
system.cpu.itb.stage2_mmu.stage2_tlb.flushTlbAsid            0                       # Number of times TLB was flushed by ASID
system.cpu.itb.stage2_mmu.stage2_tlb.flushedEntries            0                       # Number of entries that have been flushed from TLB
system.cpu.itb.stage2_mmu.stage2_tlb.alignFaults            0                       # Number of TLB faults due to alignment restrictions
system.cpu.itb.stage2_mmu.stage2_tlb.prefetchFaults            0                       # Number of TLB faults due to prefetch
system.cpu.itb.stage2_mmu.stage2_tlb.domainFaults            0                       # Number of TLB faults due to domain restrictions
system.cpu.itb.stage2_mmu.stage2_tlb.permsFaults            0                       # Number of TLB faults due to permissions restrictions
system.cpu.itb.stage2_mmu.stage2_tlb.readAccesses            0                       # DTB read accesses
system.cpu.itb.stage2_mmu.stage2_tlb.writeAccesses            0                       # DTB write accesses
system.cpu.itb.stage2_mmu.stage2_tlb.instAccesses            0                       # ITB inst accesses
system.cpu.itb.stage2_mmu.stage2_tlb.hits            0                       # Total TLB (inst and data) hits
system.cpu.itb.stage2_mmu.stage2_tlb.misses            0                       # Total TLB (inst and data) misses
system.cpu.itb.stage2_mmu.stage2_tlb.accesses            0                       # Total TLB (inst and data) accesses
system.cpu.itb.stage2_mmu.stage2_tlb.walker.walks            0                       # Table walker walks requested
system.cpu.itb.stage2_mmu.stage2_tlb.walker.requestOrigin_Requested::Data            0                       # Table walker requests started/completed, data/inst
system.cpu.itb.stage2_mmu.stage2_tlb.walker.requestOrigin_Requested::Inst            0                       # Table walker requests started/completed, data/inst
system.cpu.itb.stage2_mmu.stage2_tlb.walker.requestOrigin_Requested::total            0                       # Table walker requests started/completed, data/inst
system.cpu.itb.stage2_mmu.stage2_tlb.walker.requestOrigin_Completed::Data            0                       # Table walker requests started/completed, data/inst
system.cpu.itb.stage2_mmu.stage2_tlb.walker.requestOrigin_Completed::Inst            0                       # Table walker requests started/completed, data/inst
system.cpu.itb.stage2_mmu.stage2_tlb.walker.requestOrigin_Completed::total            0                       # Table walker requests started/completed, data/inst
system.cpu.itb.stage2_mmu.stage2_tlb.walker.requestOrigin::total            0                       # Table walker requests started/completed, data/inst
system.cpu.itb.stage2_mmu.stage2_tlb.walker.power_state.pwrStateResidencyTicks::UNDEFINED  83828578000                       # Cumulative time (in ticks) in various power states
system.cpu.itb.walker.walks                         0                       # Table walker walks requested
system.cpu.itb.walker.requestOrigin_Requested::Data            0                       # Table walker requests started/completed, data/inst
system.cpu.itb.walker.requestOrigin_Requested::Inst            0                       # Table walker requests started/completed, data/inst
system.cpu.itb.walker.requestOrigin_Requested::total            0                       # Table walker requests started/completed, data/inst
system.cpu.itb.walker.requestOrigin_Completed::Data            0                       # Table walker requests started/completed, data/inst
system.cpu.itb.walker.requestOrigin_Completed::Inst            0                       # Table walker requests started/completed, data/inst
system.cpu.itb.walker.requestOrigin_Completed::total            0                       # Table walker requests started/completed, data/inst
system.cpu.itb.walker.requestOrigin::total            0                       # Table walker requests started/completed, data/inst
system.cpu.itb.walker.power_state.pwrStateResidencyTicks::UNDEFINED  83828578000                       # Cumulative time (in ticks) in various power states
system.cpu.power_state.pwrStateResidencyTicks::ON  83828578000                       # Cumulative time (in ticks) in various power states
system.cpu.thread_0.numInsts                100000000                       # Number of Instructions committed
system.cpu.thread_0.numOps                  100199496                       # Number of Ops committed
system.cpu.thread_0.numMemRefs                      0                       # Number of Memory References
system.cpu_clk_domain.clock                       500                       # Clock period in ticks
system.cpu_voltage_domain.voltage                   1                       # Voltage in Volts
system.l2.demand_hits::.cpu.inst                   17                       # number of demand (read+write) hits
system.l2.demand_hits::.cpu.data               483257                       # number of demand (read+write) hits
system.l2.demand_hits::total                   483274                       # number of demand (read+write) hits
system.l2.overall_hits::.cpu.inst                  17                       # number of overall hits
system.l2.overall_hits::.cpu.data              483257                       # number of overall hits
system.l2.overall_hits::total                  483274                       # number of overall hits
system.l2.demand_misses::.cpu.inst                660                       # number of demand (read+write) misses
system.l2.demand_misses::.cpu.data             201365                       # number of demand (read+write) misses
system.l2.demand_misses::total                 202025                       # number of demand (read+write) misses
system.l2.overall_misses::.cpu.inst               660                       # number of overall misses
system.l2.overall_misses::.cpu.data            201365                       # number of overall misses
system.l2.overall_misses::total                202025                       # number of overall misses
system.l2.demand_miss_latency::.cpu.inst     51808500                       # number of demand (read+write) miss cycles
system.l2.demand_miss_latency::.cpu.data  17003652500                       # number of demand (read+write) miss cycles
system.l2.demand_miss_latency::total      17055461000                       # number of demand (read+write) miss cycles
system.l2.overall_miss_latency::.cpu.inst     51808500                       # number of overall miss cycles
system.l2.overall_miss_latency::.cpu.data  17003652500                       # number of overall miss cycles
system.l2.overall_miss_latency::total     17055461000                       # number of overall miss cycles
system.l2.demand_accesses::.cpu.inst              677                       # number of demand (read+write) accesses
system.l2.demand_accesses::.cpu.data           684622                       # number of demand (read+write) accesses
system.l2.demand_accesses::total               685299                       # number of demand (read+write) accesses
system.l2.overall_accesses::.cpu.inst             677                       # number of overall (read+write) accesses
system.l2.overall_accesses::.cpu.data          684622                       # number of overall (read+write) accesses
system.l2.overall_accesses::total              685299                       # number of overall (read+write) accesses
system.l2.demand_miss_rate::.cpu.inst        0.974889                       # miss rate for demand accesses
system.l2.demand_miss_rate::.cpu.data        0.294126                       # miss rate for demand accesses
system.l2.demand_miss_rate::total            0.294798                       # miss rate for demand accesses
system.l2.overall_miss_rate::.cpu.inst       0.974889                       # miss rate for overall accesses
system.l2.overall_miss_rate::.cpu.data       0.294126                       # miss rate for overall accesses
system.l2.overall_miss_rate::total           0.294798                       # miss rate for overall accesses
system.l2.demand_avg_miss_latency::.cpu.inst 78497.727273                       # average overall miss latency
system.l2.demand_avg_miss_latency::.cpu.data 84441.946217                       # average overall miss latency
system.l2.demand_avg_miss_latency::total 84422.526915                       # average overall miss latency
system.l2.overall_avg_miss_latency::.cpu.inst 78497.727273                       # average overall miss latency
system.l2.overall_avg_miss_latency::.cpu.data 84441.946217                       # average overall miss latency
system.l2.overall_avg_miss_latency::total 84422.526915                       # average overall miss latency
system.l2.blocked_cycles::no_mshrs                  0                       # number of cycles access was blocked
system.l2.blocked_cycles::no_targets                0                       # number of cycles access was blocked
system.l2.blocked::no_mshrs                         0                       # number of cycles access was blocked
system.l2.blocked::no_targets                       0                       # number of cycles access was blocked
system.l2.avg_blocked_cycles::no_mshrs            nan                       # average number of cycles each access was blocked
system.l2.avg_blocked_cycles::no_targets          nan                       # average number of cycles each access was blocked
system.l2.writebacks::.writebacks              111280                       # number of writebacks
system.l2.writebacks::total                    111280                       # number of writebacks
system.l2.demand_mshr_hits::.cpu.data               5                       # number of demand (read+write) MSHR hits
system.l2.demand_mshr_hits::total                   5                       # number of demand (read+write) MSHR hits
system.l2.overall_mshr_hits::.cpu.data              5                       # number of overall MSHR hits
system.l2.overall_mshr_hits::total                  5                       # number of overall MSHR hits
system.l2.demand_mshr_misses::.cpu.inst           660                       # number of demand (read+write) MSHR misses
system.l2.demand_mshr_misses::.cpu.data        201360                       # number of demand (read+write) MSHR misses
system.l2.demand_mshr_misses::total            202020                       # number of demand (read+write) MSHR misses
system.l2.overall_mshr_misses::.cpu.inst          660                       # number of overall MSHR misses
system.l2.overall_mshr_misses::.cpu.data       201360                       # number of overall MSHR misses
system.l2.overall_mshr_misses::total           202020                       # number of overall MSHR misses
system.l2.demand_mshr_miss_latency::.cpu.inst     45208500                       # number of demand (read+write) MSHR miss cycles
system.l2.demand_mshr_miss_latency::.cpu.data  14989734500                       # number of demand (read+write) MSHR miss cycles
system.l2.demand_mshr_miss_latency::total  15034943000                       # number of demand (read+write) MSHR miss cycles
system.l2.overall_mshr_miss_latency::.cpu.inst     45208500                       # number of overall MSHR miss cycles
system.l2.overall_mshr_miss_latency::.cpu.data  14989734500                       # number of overall MSHR miss cycles
system.l2.overall_mshr_miss_latency::total  15034943000                       # number of overall MSHR miss cycles
system.l2.demand_mshr_miss_rate::.cpu.inst     0.974889                       # mshr miss rate for demand accesses
system.l2.demand_mshr_miss_rate::.cpu.data     0.294119                       # mshr miss rate for demand accesses
system.l2.demand_mshr_miss_rate::total       0.294791                       # mshr miss rate for demand accesses
system.l2.overall_mshr_miss_rate::.cpu.inst     0.974889                       # mshr miss rate for overall accesses
system.l2.overall_mshr_miss_rate::.cpu.data     0.294119                       # mshr miss rate for overall accesses
system.l2.overall_mshr_miss_rate::total      0.294791                       # mshr miss rate for overall accesses
system.l2.demand_avg_mshr_miss_latency::.cpu.inst 68497.727273                       # average overall mshr miss latency
system.l2.demand_avg_mshr_miss_latency::.cpu.data 74442.463747                       # average overall mshr miss latency
system.l2.demand_avg_mshr_miss_latency::total 74423.042273                       # average overall mshr miss latency
system.l2.overall_avg_mshr_miss_latency::.cpu.inst 68497.727273                       # average overall mshr miss latency
system.l2.overall_avg_mshr_miss_latency::.cpu.data 74442.463747                       # average overall mshr miss latency
system.l2.overall_avg_mshr_miss_latency::total 74423.042273                       # average overall mshr miss latency
system.l2.replacements                         169420                       # number of replacements
system.l2.WritebackDirty_hits::.writebacks       607450                       # number of WritebackDirty hits
system.l2.WritebackDirty_hits::total           607450                       # number of WritebackDirty hits
system.l2.WritebackDirty_accesses::.writebacks       607450                       # number of WritebackDirty accesses(hits+misses)
system.l2.WritebackDirty_accesses::total       607450                       # number of WritebackDirty accesses(hits+misses)
system.l2.WritebackClean_hits::.writebacks          171                       # number of WritebackClean hits
system.l2.WritebackClean_hits::total              171                       # number of WritebackClean hits
system.l2.WritebackClean_accesses::.writebacks          171                       # number of WritebackClean accesses(hits+misses)
system.l2.WritebackClean_accesses::total          171                       # number of WritebackClean accesses(hits+misses)
system.l2.ReadExReq_hits::.cpu.data            151066                       # number of ReadExReq hits
system.l2.ReadExReq_hits::total                151066                       # number of ReadExReq hits
system.l2.ReadExReq_misses::.cpu.data          136253                       # number of ReadExReq misses
system.l2.ReadExReq_misses::total              136253                       # number of ReadExReq misses
system.l2.ReadExReq_miss_latency::.cpu.data  11803481000                       # number of ReadExReq miss cycles
system.l2.ReadExReq_miss_latency::total   11803481000                       # number of ReadExReq miss cycles
system.l2.ReadExReq_accesses::.cpu.data        287319                       # number of ReadExReq accesses(hits+misses)
system.l2.ReadExReq_accesses::total            287319                       # number of ReadExReq accesses(hits+misses)
system.l2.ReadExReq_miss_rate::.cpu.data     0.474222                       # miss rate for ReadExReq accesses
system.l2.ReadExReq_miss_rate::total         0.474222                       # miss rate for ReadExReq accesses
system.l2.ReadExReq_avg_miss_latency::.cpu.data 86629.145780                       # average ReadExReq miss latency
system.l2.ReadExReq_avg_miss_latency::total 86629.145780                       # average ReadExReq miss latency
system.l2.ReadExReq_mshr_misses::.cpu.data       136253                       # number of ReadExReq MSHR misses
system.l2.ReadExReq_mshr_misses::total         136253                       # number of ReadExReq MSHR misses
system.l2.ReadExReq_mshr_miss_latency::.cpu.data  10440961000                       # number of ReadExReq MSHR miss cycles
system.l2.ReadExReq_mshr_miss_latency::total  10440961000                       # number of ReadExReq MSHR miss cycles
system.l2.ReadExReq_mshr_miss_rate::.cpu.data     0.474222                       # mshr miss rate for ReadExReq accesses
system.l2.ReadExReq_mshr_miss_rate::total     0.474222                       # mshr miss rate for ReadExReq accesses
system.l2.ReadExReq_avg_mshr_miss_latency::.cpu.data 76629.219173                       # average ReadExReq mshr miss latency
system.l2.ReadExReq_avg_mshr_miss_latency::total 76629.219173                       # average ReadExReq mshr miss latency
system.l2.ReadCleanReq_hits::.cpu.inst             17                       # number of ReadCleanReq hits
system.l2.ReadCleanReq_hits::total                 17                       # number of ReadCleanReq hits
system.l2.ReadCleanReq_misses::.cpu.inst          660                       # number of ReadCleanReq misses
system.l2.ReadCleanReq_misses::total              660                       # number of ReadCleanReq misses
system.l2.ReadCleanReq_miss_latency::.cpu.inst     51808500                       # number of ReadCleanReq miss cycles
system.l2.ReadCleanReq_miss_latency::total     51808500                       # number of ReadCleanReq miss cycles
system.l2.ReadCleanReq_accesses::.cpu.inst          677                       # number of ReadCleanReq accesses(hits+misses)
system.l2.ReadCleanReq_accesses::total            677                       # number of ReadCleanReq accesses(hits+misses)
system.l2.ReadCleanReq_miss_rate::.cpu.inst     0.974889                       # miss rate for ReadCleanReq accesses
system.l2.ReadCleanReq_miss_rate::total      0.974889                       # miss rate for ReadCleanReq accesses
system.l2.ReadCleanReq_avg_miss_latency::.cpu.inst 78497.727273                       # average ReadCleanReq miss latency
system.l2.ReadCleanReq_avg_miss_latency::total 78497.727273                       # average ReadCleanReq miss latency
system.l2.ReadCleanReq_mshr_misses::.cpu.inst          660                       # number of ReadCleanReq MSHR misses
system.l2.ReadCleanReq_mshr_misses::total          660                       # number of ReadCleanReq MSHR misses
system.l2.ReadCleanReq_mshr_miss_latency::.cpu.inst     45208500                       # number of ReadCleanReq MSHR miss cycles
system.l2.ReadCleanReq_mshr_miss_latency::total     45208500                       # number of ReadCleanReq MSHR miss cycles
system.l2.ReadCleanReq_mshr_miss_rate::.cpu.inst     0.974889                       # mshr miss rate for ReadCleanReq accesses
system.l2.ReadCleanReq_mshr_miss_rate::total     0.974889                       # mshr miss rate for ReadCleanReq accesses
system.l2.ReadCleanReq_avg_mshr_miss_latency::.cpu.inst 68497.727273                       # average ReadCleanReq mshr miss latency
system.l2.ReadCleanReq_avg_mshr_miss_latency::total 68497.727273                       # average ReadCleanReq mshr miss latency
system.l2.ReadSharedReq_hits::.cpu.data        332191                       # number of ReadSharedReq hits
system.l2.ReadSharedReq_hits::total            332191                       # number of ReadSharedReq hits
system.l2.ReadSharedReq_misses::.cpu.data        65112                       # number of ReadSharedReq misses
system.l2.ReadSharedReq_misses::total           65112                       # number of ReadSharedReq misses
system.l2.ReadSharedReq_miss_latency::.cpu.data   5200171500                       # number of ReadSharedReq miss cycles
system.l2.ReadSharedReq_miss_latency::total   5200171500                       # number of ReadSharedReq miss cycles
system.l2.ReadSharedReq_accesses::.cpu.data       397303                       # number of ReadSharedReq accesses(hits+misses)
system.l2.ReadSharedReq_accesses::total        397303                       # number of ReadSharedReq accesses(hits+misses)
system.l2.ReadSharedReq_miss_rate::.cpu.data     0.163885                       # miss rate for ReadSharedReq accesses
system.l2.ReadSharedReq_miss_rate::total     0.163885                       # miss rate for ReadSharedReq accesses
system.l2.ReadSharedReq_avg_miss_latency::.cpu.data 79865.024880                       # average ReadSharedReq miss latency
system.l2.ReadSharedReq_avg_miss_latency::total 79865.024880                       # average ReadSharedReq miss latency
system.l2.ReadSharedReq_mshr_hits::.cpu.data            5                       # number of ReadSharedReq MSHR hits
system.l2.ReadSharedReq_mshr_hits::total            5                       # number of ReadSharedReq MSHR hits
system.l2.ReadSharedReq_mshr_misses::.cpu.data        65107                       # number of ReadSharedReq MSHR misses
system.l2.ReadSharedReq_mshr_misses::total        65107                       # number of ReadSharedReq MSHR misses
system.l2.ReadSharedReq_mshr_miss_latency::.cpu.data   4548773500                       # number of ReadSharedReq MSHR miss cycles
system.l2.ReadSharedReq_mshr_miss_latency::total   4548773500                       # number of ReadSharedReq MSHR miss cycles
system.l2.ReadSharedReq_mshr_miss_rate::.cpu.data     0.163872                       # mshr miss rate for ReadSharedReq accesses
system.l2.ReadSharedReq_mshr_miss_rate::total     0.163872                       # mshr miss rate for ReadSharedReq accesses
system.l2.ReadSharedReq_avg_mshr_miss_latency::.cpu.data 69866.120386                       # average ReadSharedReq mshr miss latency
system.l2.ReadSharedReq_avg_mshr_miss_latency::total 69866.120386                       # average ReadSharedReq mshr miss latency
system.l2.power_state.pwrStateResidencyTicks::UNDEFINED  83828578000                       # Cumulative time (in ticks) in various power states
system.l2.tags.tagsinuse                 31895.434970                       # Cycle average of tags in use
system.l2.tags.total_refs                     1368863                       # Total number of references to valid blocks.
system.l2.tags.sampled_refs                    202188                       # Sample count of references to valid blocks.
system.l2.tags.avg_refs                      6.770248                       # Average number of references to valid blocks.
system.l2.tags.warmup_cycle                     77000                       # Cycle when the warmup percentage was hit.
system.l2.tags.occ_blocks::.writebacks      39.600988                       # Average occupied blocks per requestor
system.l2.tags.occ_blocks::.cpu.inst        77.747609                       # Average occupied blocks per requestor
system.l2.tags.occ_blocks::.cpu.data     31778.086373                       # Average occupied blocks per requestor
system.l2.tags.occ_percent::.writebacks      0.001209                       # Average percentage of cache occupancy
system.l2.tags.occ_percent::.cpu.inst        0.002373                       # Average percentage of cache occupancy
system.l2.tags.occ_percent::.cpu.data        0.969790                       # Average percentage of cache occupancy
system.l2.tags.occ_percent::total            0.973371                       # Average percentage of cache occupancy
system.l2.tags.occ_task_id_blocks::1024         32768                       # Occupied blocks per task id
system.l2.tags.age_task_id_blocks_1024::0           66                       # Occupied blocks per task id
system.l2.tags.age_task_id_blocks_1024::1           34                       # Occupied blocks per task id
system.l2.tags.age_task_id_blocks_1024::2         1335                       # Occupied blocks per task id
system.l2.tags.age_task_id_blocks_1024::3        15646                       # Occupied blocks per task id
system.l2.tags.age_task_id_blocks_1024::4        15687                       # Occupied blocks per task id
system.l2.tags.occ_task_id_percent::1024            1                       # Percentage of cache occupancy per task id
system.l2.tags.tag_accesses                  11153140                       # Number of tag accesses
system.l2.tags.data_accesses                 11153140                       # Number of data accesses
system.l2.tags.power_state.pwrStateResidencyTicks::UNDEFINED  83828578000                       # Cumulative time (in ticks) in various power states
system.mem_ctrls.avgPriority_.writebacks::samples    111280.00                       # Average QoS priority value for accepted requests
system.mem_ctrls.avgPriority_.cpu.inst::samples       660.00                       # Average QoS priority value for accepted requests
system.mem_ctrls.avgPriority_.cpu.data::samples    201325.00                       # Average QoS priority value for accepted requests
system.mem_ctrls.priorityMinLatency      0.000000018750                       # per QoS priority minimum request to response latency (s)
system.mem_ctrls.priorityMaxLatency      0.006399542500                       # per QoS priority maximum request to response latency (s)
system.mem_ctrls.numReadWriteTurnArounds         6663                       # Number of turnarounds from READ to WRITE
system.mem_ctrls.numWriteReadTurnArounds         6663                       # Number of turnarounds from WRITE to READ
system.mem_ctrls.numStayReadState              526204                       # Number of times bus staying in READ state
system.mem_ctrls.numStayWriteState             104758                       # Number of times bus staying in WRITE state
system.mem_ctrls.readReqs                      202019                       # Number of read requests accepted
system.mem_ctrls.writeReqs                     111280                       # Number of write requests accepted
system.mem_ctrls.readBursts                    202019                       # Number of controller read bursts, including those serviced by the write queue
system.mem_ctrls.writeBursts                   111280                       # Number of controller write bursts, including those merged in the write queue
system.mem_ctrls.servicedByWrQ                     34                       # Number of controller read bursts serviced by the write queue
system.mem_ctrls.mergedWrBursts                     0                       # Number of controller write bursts merged with an existing one
system.mem_ctrls.neitherReadNorWriteReqs            0                       # Number of requests that are neither read nor write
system.mem_ctrls.avgRdQLen                       1.08                       # Average read queue length when enqueuing
system.mem_ctrls.avgWrQLen                      24.69                       # Average write queue length when enqueuing
system.mem_ctrls.numRdRetry                         0                       # Number of times read queue was full causing retry
system.mem_ctrls.numWrRetry                         0                       # Number of times write queue was full causing retry
system.mem_ctrls.readPktSize::0                     0                       # Read request sizes (log2)
system.mem_ctrls.readPktSize::1                     0                       # Read request sizes (log2)
system.mem_ctrls.readPktSize::2                     0                       # Read request sizes (log2)
system.mem_ctrls.readPktSize::3                     0                       # Read request sizes (log2)
system.mem_ctrls.readPktSize::4                     0                       # Read request sizes (log2)
system.mem_ctrls.readPktSize::5                     0                       # Read request sizes (log2)
system.mem_ctrls.readPktSize::6                202019                       # Read request sizes (log2)
system.mem_ctrls.writePktSize::0                    0                       # Write request sizes (log2)
[...]
system.mem_ctrls.dram.bw_write::.writebacks     84958139                       # Write bandwidth from this memory (bytes/s)
system.mem_ctrls.dram.bw_write::total        84958139                       # Write bandwidth from this memory (bytes/s)
system.mem_ctrls.dram.bw_total::.writebacks     84958139                       # Total bandwidth to/from this memory (bytes/s)
system.mem_ctrls.dram.bw_total::.cpu.inst       503885                       # Total bandwidth to/from this memory (bytes/s)
system.mem_ctrls.dram.bw_total::.cpu.data    153730104                       # Total bandwidth to/from this memory (bytes/s)
system.mem_ctrls.dram.bw_total::total       239192128                       # Total bandwidth to/from this memory (bytes/s)
system.mem_ctrls.dram.readBursts               201985                       # Number of DRAM read bursts
system.mem_ctrls.dram.writeBursts              111261                       # Number of DRAM write bursts
system.mem_ctrls.dram.perBankRdBursts::0        12815                       # Per bank write bursts
system.mem_ctrls.dram.perBankRdBursts::1        12635                       # Per bank write bursts
system.mem_ctrls.dram.perBankRdBursts::2        12664                       # Per bank write bursts
system.mem_ctrls.dram.perBankRdBursts::3        12391                       # Per bank write bursts
system.mem_ctrls.dram.perBankRdBursts::4        12607                       # Per bank write bursts
system.mem_ctrls.dram.perBankRdBursts::5        12381                       # Per bank write bursts
system.mem_ctrls.dram.perBankRdBursts::6        12463                       # Per bank write bursts
system.mem_ctrls.dram.perBankRdBursts::7        12145                       # Per bank write bursts
system.mem_ctrls.dram.perBankRdBursts::8        12614                       # Per bank write bursts
system.mem_ctrls.dram.perBankRdBursts::9        12624                       # Per bank write bursts
system.mem_ctrls.dram.perBankRdBursts::10        12804                       # Per bank write bursts
system.mem_ctrls.dram.perBankRdBursts::11        12751                       # Per bank write bursts
system.mem_ctrls.dram.perBankRdBursts::12        12812                       # Per bank write bursts
system.mem_ctrls.dram.perBankRdBursts::13        12680                       # Per bank write bursts
system.mem_ctrls.dram.perBankRdBursts::14        12828                       # Per bank write bursts
system.mem_ctrls.dram.perBankRdBursts::15        12771                       # Per bank write bursts
system.mem_ctrls.dram.perBankWrBursts::0         7049                       # Per bank write bursts
system.mem_ctrls.dram.perBankWrBursts::1         7031                       # Per bank write bursts
system.mem_ctrls.dram.perBankWrBursts::2         7056                       # Per bank write bursts
system.mem_ctrls.dram.perBankWrBursts::3         6945                       # Per bank write bursts
system.mem_ctrls.dram.perBankWrBursts::4         7146                       # Per bank write bursts
system.mem_ctrls.dram.perBankWrBursts::5         6857                       # Per bank write bursts
system.mem_ctrls.dram.perBankWrBursts::6         6798                       # Per bank write bursts
system.mem_ctrls.dram.perBankWrBursts::7         6492                       # Per bank write bursts
system.mem_ctrls.dram.perBankWrBursts::8         6890                       # Per bank write bursts
system.mem_ctrls.dram.perBankWrBursts::9         6918                       # Per bank write bursts
system.mem_ctrls.dram.perBankWrBursts::10         7017                       # Per bank write bursts
system.mem_ctrls.dram.perBankWrBursts::11         6950                       # Per bank write bursts
system.mem_ctrls.dram.perBankWrBursts::12         7012                       # Per bank write bursts
system.mem_ctrls.dram.perBankWrBursts::13         6940                       # Per bank write bursts
system.mem_ctrls.dram.perBankWrBursts::14         7069                       # Per bank write bursts
system.mem_ctrls.dram.perBankWrBursts::15         7091                       # Per bank write bursts
system.mem_ctrls.dram.totQLat              2925780500                       # Total ticks spent queuing
system.mem_ctrls.dram.totBusLat            1009925000                       # Total ticks spent in databus transfers
system.mem_ctrls.dram.totMemAccLat         6712999250                       # Total ticks spent from burst creation until serviced by the DRAM
system.mem_ctrls.dram.avgQLat                14485.14                       # Average queueing delay per DRAM burst
system.mem_ctrls.dram.avgBusLat               5000.00                       # Average bus latency per DRAM burst
system.mem_ctrls.dram.avgMemAccLat           33235.14                       # Average memory access latency per DRAM burst
system.mem_ctrls.dram.readRowHits              138896                       # Number of row buffer hits during reads
system.mem_ctrls.dram.writeRowHits              70121                       # Number of row buffer hits during writes
system.mem_ctrls.dram.readRowHitRate            68.77                       # Row buffer hit rate for reads
system.mem_ctrls.dram.writeRowHitRate           63.02                       # Row buffer hit rate for writes
system.mem_ctrls.dram.bytesPerActivate::samples       104224                       # Bytes accessed per row activation
system.mem_ctrls.dram.bytesPerActivate::mean   192.349401                       # Bytes accessed per row activation
system.mem_ctrls.dram.bytesPerActivate::gmean   112.037079                       # Bytes accessed per row activation
system.mem_ctrls.dram.bytesPerActivate::stdev   257.419924                       # Bytes accessed per row activation
system.mem_ctrls.dram.bytesPerActivate::0-127        68483     65.71%     65.71% # Bytes accessed per row activation
system.mem_ctrls.dram.bytesPerActivate::128-255        14639     14.05%     79.75% # Bytes accessed per row activation
system.mem_ctrls.dram.bytesPerActivate::256-383         2345      2.25%     82.00% # Bytes accessed per row activation
system.mem_ctrls.dram.bytesPerActivate::384-511         1461      1.40%     83.40% # Bytes accessed per row activation
system.mem_ctrls.dram.bytesPerActivate::512-639         9630      9.24%     92.64% # Bytes accessed per row activation
system.mem_ctrls.dram.bytesPerActivate::640-767          954      0.92%     93.56% # Bytes accessed per row activation
system.mem_ctrls.dram.bytesPerActivate::768-895          521      0.50%     94.06% # Bytes accessed per row activation
system.mem_ctrls.dram.bytesPerActivate::896-1023          503      0.48%     94.54% # Bytes accessed per row activation
system.mem_ctrls.dram.bytesPerActivate::1024-1151         5688      5.46%    100.00% # Bytes accessed per row activation
system.mem_ctrls.dram.bytesPerActivate::total       104224                       # Bytes accessed per row activation
system.mem_ctrls.dram.bytesRead              12927040                       # Total number of bytes read from DRAM
system.mem_ctrls.dram.bytesWritten            7120704                       # Total number of bytes written to DRAM
system.mem_ctrls.dram.avgRdBW              154.208032                       # Average DRAM read bandwidth in MiBytes/s
system.mem_ctrls.dram.avgWrBW               84.943633                       # Average DRAM write bandwidth in MiBytes/s
system.mem_ctrls.dram.peakBW                 12800.00                       # Theoretical peak bandwidth in MiByte/s
system.mem_ctrls.dram.busUtil                    1.87                       # Data bus utilization in percentage
system.mem_ctrls.dram.busUtilRead                1.20                       # Data bus utilization in percentage for reads
system.mem_ctrls.dram.busUtilWrite               0.66                       # Data bus utilization in percentage for writes
system.mem_ctrls.dram.pageHitRate               66.73                       # Row buffer hit rate, read and write combined
system.mem_ctrls.dram.power_state.pwrStateResidencyTicks::UNDEFINED  83828578000                       # Cumulative time (in ticks) in various power states
system.mem_ctrls.dram.rank0.actEnergy       371322840                       # Energy for activate commands per rank (pJ)
system.mem_ctrls.dram.rank0.preEnergy       197351385                       # Energy for precharge commands per rank (pJ)
system.mem_ctrls.dram.rank0.readEnergy      714721140                       # Energy for read commands per rank (pJ)
system.mem_ctrls.dram.rank0.writeEnergy     289052280                       # Energy for write commands per rank (pJ)
system.mem_ctrls.dram.rank0.refreshEnergy 6617214240.000001                       # Energy for refresh commands per rank (pJ)
system.mem_ctrls.dram.rank0.actBackEnergy  21271507950                       # Energy for active background per rank (pJ)
system.mem_ctrls.dram.rank0.preBackEnergy  14277325440                       # Energy for precharge background per rank (pJ)
system.mem_ctrls.dram.rank0.actPowerDownEnergy            0                       # Energy for active power-down per rank (pJ)
system.mem_ctrls.dram.rank0.prePowerDownEnergy            0                       # Energy for precharge power-down per rank (pJ)
system.mem_ctrls.dram.rank0.selfRefreshEnergy            0                       # Energy for self refresh per rank (pJ)
system.mem_ctrls.dram.rank0.totalEnergy   43738495275                       # Total energy per rank (pJ)
system.mem_ctrls.dram.rank0.averagePower   521.761150                       # Core power per rank (mW)
system.mem_ctrls.dram.rank0.totalIdleTime            0                       # Total Idle time Per DRAM Rank
system.mem_ctrls.dram.rank0.pwrStateTime::IDLE  36899674000                       # Time in different power states
system.mem_ctrls.dram.rank0.pwrStateTime::REF   2799160000                       # Time in different power states
system.mem_ctrls.dram.rank0.pwrStateTime::SREF            0                       # Time in different power states
system.mem_ctrls.dram.rank0.pwrStateTime::PRE_PDN            0                       # Time in different power states
system.mem_ctrls.dram.rank0.pwrStateTime::ACT  44129744000                       # Time in different power states
system.mem_ctrls.dram.rank0.pwrStateTime::ACT_PDN            0                       # Time in different power states
system.mem_ctrls.dram.rank1.actEnergy       372872220                       # Energy for activate commands per rank (pJ)
system.mem_ctrls.dram.rank1.preEnergy       198178695                       # Energy for precharge commands per rank (pJ)
system.mem_ctrls.dram.rank1.readEnergy      727451760                       # Energy for read commands per rank (pJ)
system.mem_ctrls.dram.rank1.writeEnergy     291730140                       # Energy for write commands per rank (pJ)
system.mem_ctrls.dram.rank1.refreshEnergy 6617214240.000001                       # Energy for refresh commands per rank (pJ)
system.mem_ctrls.dram.rank1.actBackEnergy  22051347750                       # Energy for active background per rank (pJ)
system.mem_ctrls.dram.rank1.preBackEnergy  13620618240                       # Energy for precharge background per rank (pJ)
system.mem_ctrls.dram.rank1.actPowerDownEnergy            0                       # Energy for active power-down per rank (pJ)
system.mem_ctrls.dram.rank1.prePowerDownEnergy            0                       # Energy for precharge power-down per rank (pJ)
system.mem_ctrls.dram.rank1.selfRefreshEnergy            0                       # Energy for self refresh per rank (pJ)
system.mem_ctrls.dram.rank1.totalEnergy   43879413045                       # Total energy per rank (pJ)
system.mem_ctrls.dram.rank1.averagePower   523.442173                       # Core power per rank (mW)
system.mem_ctrls.dram.rank1.totalIdleTime            0                       # Total Idle time Per DRAM Rank
system.mem_ctrls.dram.rank1.pwrStateTime::IDLE  35183329000                       # Time in different power states
system.mem_ctrls.dram.rank1.pwrStateTime::REF   2799160000                       # Time in different power states
system.mem_ctrls.dram.rank1.pwrStateTime::SREF            0                       # Time in different power states
system.mem_ctrls.dram.rank1.pwrStateTime::PRE_PDN            0                       # Time in different power states
system.mem_ctrls.dram.rank1.pwrStateTime::ACT  45846089000                       # Time in different power states
system.mem_ctrls.dram.rank1.pwrStateTime::ACT_PDN            0                       # Time in different power states
system.mem_ctrls.power_state.pwrStateResidencyTicks::UNDEFINED  83828578000                       # Cumulative time (in ticks) in various power states
system.membus.trans_dist::ReadResp              65767                       # Transaction distribution
system.membus.trans_dist::WritebackDirty       111280                       # Transaction distribution
system.membus.trans_dist::CleanEvict            57561                       # Transaction distribution
system.membus.trans_dist::ReadExReq            136252                       # Transaction distribution
system.membus.trans_dist::ReadExResp           136252                       # Transaction distribution
system.membus.trans_dist::ReadSharedReq         65767                       # Transaction distribution
system.membus.pkt_count_system.l2.mem_side_port::system.mem_ctrls.port       572879                       # Packet count per connected requestor and responder (bytes)
system.membus.pkt_count::total                 572879                       # Packet count per connected requestor and responder (bytes)
system.membus.pkt_size_system.l2.mem_side_port::system.mem_ctrls.port     20051136                       # Cumulative packet size per connected requestor and responder (bytes)
system.membus.pkt_size::total                20051136                       # Cumulative packet size per connected requestor and responder (bytes)
system.membus.snoops                                0                       # Total snoops (count)
system.membus.snoopTraffic                          0                       # Total snoop traffic (bytes)
system.membus.snoop_fanout::samples            202019                       # Request fanout histogram
system.membus.snoop_fanout::mean                    0                       # Request fanout histogram
system.membus.snoop_fanout::stdev                   0                       # Request fanout histogram
system.membus.snoop_fanout::underflows              0      0.00%      0.00% # Request fanout histogram
system.membus.snoop_fanout::0                  202019    100.00%    100.00% # Request fanout histogram
system.membus.snoop_fanout::1                       0      0.00%    100.00% # Request fanout histogram
system.membus.snoop_fanout::overflows               0      0.00%    100.00% # Request fanout histogram
system.membus.snoop_fanout::min_value               0                       # Request fanout histogram
system.membus.snoop_fanout::max_value               0                       # Request fanout histogram
system.membus.snoop_fanout::total              202019                       # Request fanout histogram
system.membus.power_state.pwrStateResidencyTicks::UNDEFINED  83828578000                       # Cumulative time (in ticks) in various power states
system.membus.reqLayer0.occupancy           847570000                       # Layer occupancy (ticks)
system.membus.reqLayer0.utilization               1.0                       # Layer utilization (%)
system.membus.respLayer1.occupancy         1088087750                       # Layer occupancy (ticks)
system.membus.respLayer1.utilization              1.3                       # Layer utilization (%)
system.tol2bus.trans_dist::ReadResp            397980                       # Transaction distribution
system.tol2bus.trans_dist::WritebackDirty       718730                       # Transaction distribution
system.tol2bus.trans_dist::WritebackClean          172                       # Transaction distribution
system.tol2bus.trans_dist::CleanEvict          134287                       # Transaction distribution
system.tol2bus.trans_dist::ReadExReq           287319                       # Transaction distribution
system.tol2bus.trans_dist::ReadExResp          287318                       # Transaction distribution
system.tol2bus.trans_dist::ReadCleanReq           677                       # Transaction distribution
system.tol2bus.trans_dist::ReadSharedReq       397303                       # Transaction distribution
system.tol2bus.pkt_count_system.cpu.icache.mem_side_port::system.l2.cpu_side_port         1526                       # Packet count per connected requestor and responder (bytes)
system.tol2bus.pkt_count_system.cpu.dcache.mem_side_port::system.l2.cpu_side_port      2052840                       # Packet count per connected requestor and responder (bytes)
system.tol2bus.pkt_count::total               2054366                       # Packet count per connected requestor and responder (bytes)
system.tol2bus.pkt_size_system.cpu.icache.mem_side_port::system.l2.cpu_side_port        54336                       # Cumulative packet size per connected requestor and responder (bytes)
system.tol2bus.pkt_size_system.cpu.dcache.mem_side_port::system.l2.cpu_side_port     82692544                       # Cumulative packet size per connected requestor and responder (bytes)
system.tol2bus.pkt_size::total               82746880                       # Cumulative packet size per connected requestor and responder (bytes)
system.tol2bus.snoops                          169420                       # Total snoops (count)
system.tol2bus.snoopTraffic                   7121920                       # Total snoop traffic (bytes)
system.tol2bus.snoop_fanout::samples           854719                       # Request fanout histogram
system.tol2bus.snoop_fanout::mean            0.000913                       # Request fanout histogram
system.tol2bus.snoop_fanout::stdev           0.030195                       # Request fanout histogram
system.tol2bus.snoop_fanout::underflows             0      0.00%      0.00% # Request fanout histogram
system.tol2bus.snoop_fanout::0                 853939     99.91%     99.91% # Request fanout histogram
system.tol2bus.snoop_fanout::1                    780      0.09%    100.00% # Request fanout histogram
system.tol2bus.snoop_fanout::2                      0      0.00%    100.00% # Request fanout histogram
system.tol2bus.snoop_fanout::overflows              0      0.00%    100.00% # Request fanout histogram
system.tol2bus.snoop_fanout::min_value              0                       # Request fanout histogram
system.tol2bus.snoop_fanout::max_value              1                       # Request fanout histogram
system.tol2bus.snoop_fanout::total             854719                       # Request fanout histogram
system.tol2bus.power_state.pwrStateResidencyTicks::UNDEFINED  83828578000                       # Cumulative time (in ticks) in various power states
system.tol2bus.reqLayer0.occupancy         1292156000                       # Layer occupancy (ticks)
system.tol2bus.reqLayer0.utilization              1.5                       # Layer utilization (%)
system.tol2bus.respLayer0.occupancy           1015500                       # Layer occupancy (ticks)
system.tol2bus.respLayer0.utilization             0.0                       # Layer utilization (%)
system.tol2bus.respLayer1.occupancy        1026933995                       # Layer occupancy (ticks)
system.tol2bus.respLayer1.utilization             1.2                       # Layer utilization (%)
system.voltage_domain.voltage                       1                       # Voltage in Volts

---------- End Simulation Statistics   ----------
