
---------- Begin Simulation Statistics ----------
final_tick                               174778650000                       # Number of ticks from beginning of simulation (restored from checkpoints and never reset)
host_inst_rate                                 276174                       # Simulator instruction rate (inst/s)
host_mem_usage                                 725744                       # Number of bytes of host memory used
host_op_rate                                   276184                       # Simulator op (including micro ops) rate (op/s)
host_seconds                                   362.09                       # Real time elapsed on the host
host_tick_rate                              482693268                       # Simulator tick rate (ticks/s)
sim_freq                                 1000000000000                       # Frequency of simulated ticks
sim_insts                                   100000001                       # Number of instructions simulated
sim_ops                                     100003447                       # Number of ops (including micro ops) simulated
sim_seconds                                  0.174779                       # Number of seconds simulated
sim_ticks                                174778650000                       # Number of ticks simulated
system.cpu.committedInsts                   100000001                       # Number of instructions committed
system.cpu.committedOps                     100003447                       # Number of ops (including micro ops) committed
system.cpu.cpi                               3.495573                       # CPI: cycles per instruction
system.cpu.discardedOps                         21098                       # Number of ops (including micro ops) which were discarded before commit
system.cpu.idleCycles                       232206432                       # Total number of cycles that the object has spent stopped
system.cpu.ipc                               0.286076                       # IPC: instructions per cycle
system.cpu.numCycles                        349557300                       # number of cpu cycles simulated
system.cpu.numFetchSuspends                         0                       # Number of times Execute suspended instruction fetching
system.cpu.numWorkItemsCompleted                    0                       # number of work items this cpu completed
system.cpu.numWorkItemsStarted                      0                       # number of work items this cpu started
system.cpu.op_class_0::No_OpClass                   0      0.00%      0.00% # Class of committed instruction
system.cpu.op_class_0::IntAlu                49995247     49.99%     49.99% # Class of committed instruction
system.cpu.op_class_0::IntMult                     85      0.00%     49.99% # Class of committed instruction
system.cpu.op_class_0::IntDiv                       0      0.00%     49.99% # Class of committed instruction
system.cpu.op_class_0::FloatAdd                     0      0.00%     49.99% # Class of committed instruction
system.cpu.op_class_0::FloatCmp                     0      0.00%     49.99% # Class of committed instruction
system.cpu.op_class_0::FloatCvt                     0      0.00%     49.99% # Class of committed instruction
system.cpu.op_class_0::FloatMult                    0      0.00%     49.99% # Class of committed instruction
system.cpu.op_class_0::FloatMultAcc                 0      0.00%     49.99% # Class of committed instruction
system.cpu.op_class_0::FloatDiv                     0      0.00%     49.99% # Class of committed instruction
system.cpu.op_class_0::FloatMisc                    0      0.00%     49.99% # Class of committed instruction
system.cpu.op_class_0::FloatSqrt                    0      0.00%     49.99% # Class of committed instruction
system.cpu.op_class_0::SimdAdd                      0      0.00%     49.99% # Class of committed instruction
system.cpu.op_class_0::SimdAddAcc                   0      0.00%     49.99% # Class of committed instruction
system.cpu.op_class_0::SimdAlu                      0      0.00%     49.99% # Class of committed instruction
system.cpu.op_class_0::SimdCmp                      0      0.00%     49.99% # Class of committed instruction
system.cpu.op_class_0::SimdCvt                      0      0.00%     49.99% # Class of committed instruction
system.cpu.op_class_0::SimdMisc                     0      0.00%     49.99% # Class of committed instruction
system.cpu.op_class_0::SimdMult                     0      0.00%     49.99% # Class of committed instruction
system.cpu.op_class_0::SimdMultAcc                  0      0.00%     49.99% # Class of committed instruction
system.cpu.op_class_0::SimdShift                    0      0.00%     49.99% # Class of committed instruction
system.cpu.op_class_0::SimdShiftAcc                 0      0.00%     49.99% # Class of committed instruction
system.cpu.op_class_0::SimdDiv                      0      0.00%     49.99% # Class of committed instruction
system.cpu.op_class_0::SimdSqrt                     0      0.00%     49.99% # Class of committed instruction
system.cpu.op_class_0::SimdFloatAdd                 0      0.00%     49.99% # Class of committed instruction
system.cpu.op_class_0::SimdFloatAlu                 0      0.00%     49.99% # Class of committed instruction
system.cpu.op_class_0::SimdFloatCmp                 2      0.00%     49.99% # Class of committed instruction
system.cpu.op_class_0::SimdFloatCvt                 0      0.00%     49.99% # Class of committed instruction
system.cpu.op_class_0::SimdFloatDiv                 0      0.00%     49.99% # Class of committed instruction
system.cpu.op_class_0::SimdFloatMisc                5      0.00%     49.99% # Class of committed instruction
system.cpu.op_class_0::SimdFloatMult                0      0.00%     49.99% # Class of committed instruction
system.cpu.op_class_0::SimdFloatMultAcc             0      0.00%     49.99% # Class of committed instruction
system.cpu.op_class_0::SimdFloatSqrt                0      0.00%     49.99% # Class of committed instruction
system.cpu.op_class_0::SimdReduceAdd                0      0.00%     49.99% # Class of committed instruction
system.cpu.op_class_0::SimdReduceAlu                0      0.00%     49.99% # Class of committed instruction
system.cpu.op_class_0::SimdReduceCmp                0      0.00%     49.99% # Class of committed instruction
system.cpu.op_class_0::SimdFloatReduceAdd            0      0.00%     49.99% # Class of committed instruction
system.cpu.op_class_0::SimdFloatReduceCmp            0      0.00%     49.99% # Class of committed instruction
system.cpu.op_class_0::SimdAes                      0      0.00%     49.99% # Class of committed instruction
system.cpu.op_class_0::SimdAesMix                   0      0.00%     49.99% # Class of committed instruction
system.cpu.op_class_0::SimdSha1Hash                 0      0.00%     49.99% # Class of committed instruction
system.cpu.op_class_0::SimdSha1Hash2                0      0.00%     49.99% # Class of committed instruction
system.cpu.op_class_0::SimdSha256Hash               0      0.00%     49.99% # Class of committed instruction
system.cpu.op_class_0::SimdSha256Hash2              0      0.00%     49.99% # Class of committed instruction
system.cpu.op_class_0::SimdShaSigma2                0      0.00%     49.99% # Class of committed instruction
system.cpu.op_class_0::SimdShaSigma3                0      0.00%     49.99% # Class of committed instruction
system.cpu.op_class_0::SimdPredAlu                  0      0.00%     49.99% # Class of committed instruction
system.cpu.op_class_0::MemRead               36892277     36.89%     86.88% # Class of committed instruction
system.cpu.op_class_0::MemWrite              13115831     13.12%    100.00% # Class of committed instruction
system.cpu.op_class_0::FloatMemRead                 0      0.00%    100.00% # Class of committed instruction
system.cpu.op_class_0::FloatMemWrite                0      0.00%    100.00% # Class of committed instruction
system.cpu.op_class_0::IprAccess                    0      0.00%    100.00% # Class of committed instruction
system.cpu.op_class_0::InstPrefetch                 0      0.00%    100.00% # Class of committed instruction
system.cpu.op_class_0::total                100003447                       # Class of committed instruction
system.cpu.tickCycles                       117350868                       # Number of cycles that the object actually ticked
system.cpu.workload.numSyscalls                    19                       # Number of system calls
system.membus.snoop_filter.hit_multi_requests            0                       # Number of requests hitting in the snoop filter with multiple (>1) holders of the requested data.
system.membus.snoop_filter.hit_multi_snoops            0                       # Number of snoops hitting in the snoop filter with multiple (>1) holders of the requested data.
system.membus.snoop_filter.hit_single_requests      1454994                       # Number of requests hitting in the snoop filter with a single holder of the requested data.
system.membus.snoop_filter.hit_single_snoops            0                       # Number of snoops hitting in the snoop filter with a single holder of the requested data.
system.membus.snoop_filter.tot_requests       2943089                       # Total number of requests made to the snoop filter.
system.membus.snoop_filter.tot_snoops               0                       # Total number of snoops made to the snoop filter.
system.tol2bus.snoop_filter.hit_multi_requests           36                       # Number of requests hitting in the snoop filter with multiple (>1) holders of the requested data.
system.tol2bus.snoop_filter.hit_multi_snoops            1                       # Number of snoops hitting in the snoop filter with multiple (>1) holders of the requested data.
system.tol2bus.snoop_filter.hit_single_requests      1486852                       # Number of requests hitting in the snoop filter with a single holder of the requested data.
system.tol2bus.snoop_filter.hit_single_snoops          332                       # Number of snoops hitting in the snoop filter with a single holder of the requested data.
system.tol2bus.snoop_filter.tot_requests      2975057                       # Total number of requests made to the snoop filter.
system.tol2bus.snoop_filter.tot_snoops            333                       # Total number of snoops made to the snoop filter.
system.clk_domain.clock                          1000                       # Clock period in ticks
system.cpu.branchPred.lookups                  606315                       # Number of BP lookups
system.cpu.branchPred.condPredicted            604309                       # Number of conditional branches predicted
system.cpu.branchPred.condIncorrect               815                       # Number of conditional branches incorrect
system.cpu.branchPred.BTBLookups               602241                       # Number of BTB lookups
system.cpu.branchPred.BTBHits                  601172                       # Number of BTB hits
system.cpu.branchPred.BTBHitPct             99.822496                       # BTB Hit Percentage
system.cpu.branchPred.RASUsed                     553                       # Number of times the RAS was used to get a target.
system.cpu.branchPred.RASIncorrect                  1                       # Number of incorrect RAS predictions.
system.cpu.branchPred.indirectLookups             356                       # Number of indirect predictor lookups.
system.cpu.branchPred.indirectHits                168                       # Number of indirect target hits.
system.cpu.branchPred.indirectMisses              188                       # Number of indirect misses.
system.cpu.branchPred.indirectMispredicted          103                       # Number of mispredicted indirect branches.
system.cpu.dcache.demand_hits::.cpu.data     45820026                       # number of demand (read+write) hits
system.cpu.dcache.demand_hits::total         45820026                       # number of demand (read+write) hits
system.cpu.dcache.overall_hits::.cpu.data     45820056                       # number of overall hits
system.cpu.dcache.overall_hits::total        45820056                       # number of overall hits
system.cpu.dcache.demand_misses::.cpu.data      2975076                       # number of demand (read+write) misses
system.cpu.dcache.demand_misses::total        2975076                       # number of demand (read+write) misses
system.cpu.dcache.overall_misses::.cpu.data      2975098                       # number of overall misses
system.cpu.dcache.overall_misses::total       2975098                       # number of overall misses
system.cpu.dcache.demand_miss_latency::.cpu.data 237276522500                       # number of demand (read+write) miss cycles
system.cpu.dcache.demand_miss_latency::total 237276522500                       # number of demand (read+write) miss cycles
system.cpu.dcache.overall_miss_latency::.cpu.data 237276522500                       # number of overall miss cycles
system.cpu.dcache.overall_miss_latency::total 237276522500                       # number of overall miss cycles
system.cpu.dcache.demand_accesses::.cpu.data     48795102                       # number of demand (read+write) accesses
system.cpu.dcache.demand_accesses::total     48795102                       # number of demand (read+write) accesses
system.cpu.dcache.overall_accesses::.cpu.data     48795154                       # number of overall (read+write) accesses
system.cpu.dcache.overall_accesses::total     48795154                       # number of overall (read+write) accesses
system.cpu.dcache.demand_miss_rate::.cpu.data     0.060971                       # miss rate for demand accesses
system.cpu.dcache.demand_miss_rate::total     0.060971                       # miss rate for demand accesses
system.cpu.dcache.overall_miss_rate::.cpu.data     0.060971                       # miss rate for overall accesses
system.cpu.dcache.overall_miss_rate::total     0.060971                       # miss rate for overall accesses
system.cpu.dcache.demand_avg_miss_latency::.cpu.data 79754.776853                       # average overall miss latency
system.cpu.dcache.demand_avg_miss_latency::total 79754.776853                       # average overall miss latency
system.cpu.dcache.overall_avg_miss_latency::.cpu.data 79754.187089                       # average overall miss latency
system.cpu.dcache.overall_avg_miss_latency::total 79754.187089                       # average overall miss latency
system.cpu.dcache.blocked_cycles::no_mshrs            0                       # number of cycles access was blocked
system.cpu.dcache.blocked_cycles::no_targets            0                       # number of cycles access was blocked
system.cpu.dcache.blocked::no_mshrs                 0                       # number of cycles access was blocked
system.cpu.dcache.blocked::no_targets               0                       # number of cycles access was blocked
system.cpu.dcache.avg_blocked_cycles::no_mshrs          nan                       # average number of cycles each access was blocked
system.cpu.dcache.avg_blocked_cycles::no_targets          nan                       # average number of cycles each access was blocked
system.cpu.dcache.writebacks::.writebacks      1486489                       # number of writebacks
system.cpu.dcache.writebacks::total           1486489                       # number of writebacks
system.cpu.dcache.demand_mshr_hits::.cpu.data      1487479                       # number of demand (read+write) MSHR hits
system.cpu.dcache.demand_mshr_hits::total      1487479                       # number of demand (read+write) MSHR hits
system.cpu.dcache.overall_mshr_hits::.cpu.data      1487479                       # number of overall MSHR hits
system.cpu.dcache.overall_mshr_hits::total      1487479                       # number of overall MSHR hits
system.cpu.dcache.demand_mshr_misses::.cpu.data      1487597                       # number of demand (read+write) MSHR misses
system.cpu.dcache.demand_mshr_misses::total      1487597                       # number of demand (read+write) MSHR misses
system.cpu.dcache.overall_mshr_misses::.cpu.data      1487614                       # number of overall MSHR misses
system.cpu.dcache.overall_mshr_misses::total      1487614                       # number of overall MSHR misses
system.cpu.dcache.demand_mshr_miss_latency::.cpu.data 121101881000                       # number of demand (read+write) MSHR miss cycles
system.cpu.dcache.demand_mshr_miss_latency::total 121101881000                       # number of demand (read+write) MSHR miss cycles
system.cpu.dcache.overall_mshr_miss_latency::.cpu.data 121103242500                       # number of overall MSHR miss cycles
system.cpu.dcache.overall_mshr_miss_latency::total 121103242500                       # number of overall MSHR miss cycles
system.cpu.dcache.demand_mshr_miss_rate::.cpu.data     0.030487                       # mshr miss rate for demand accesses
system.cpu.dcache.demand_mshr_miss_rate::total     0.030487                       # mshr miss rate for demand accesses
system.cpu.dcache.overall_mshr_miss_rate::.cpu.data     0.030487                       # mshr miss rate for overall accesses
system.cpu.dcache.overall_mshr_miss_rate::total     0.030487                       # mshr miss rate for overall accesses
system.cpu.dcache.demand_avg_mshr_miss_latency::.cpu.data 81407.720639                       # average overall mshr miss latency
system.cpu.dcache.demand_avg_mshr_miss_latency::total 81407.720639                       # average overall mshr miss latency
system.cpu.dcache.overall_avg_mshr_miss_latency::.cpu.data 81407.705561                       # average overall mshr miss latency
system.cpu.dcache.overall_avg_mshr_miss_latency::total 81407.705561                       # average overall mshr miss latency
system.cpu.dcache.replacements                1486591                       # number of replacements
system.cpu.dcache.ReadReq_hits::.cpu.data     35702509                       # number of ReadReq hits
system.cpu.dcache.ReadReq_hits::total        35702509                       # number of ReadReq hits
system.cpu.dcache.ReadReq_misses::.cpu.data          106                       # number of ReadReq misses
system.cpu.dcache.ReadReq_misses::total           106                       # number of ReadReq misses
system.cpu.dcache.ReadReq_miss_latency::.cpu.data      8235500                       # number of ReadReq miss cycles
system.cpu.dcache.ReadReq_miss_latency::total      8235500                       # number of ReadReq miss cycles
system.cpu.dcache.ReadReq_accesses::.cpu.data     35702615                       # number of ReadReq accesses(hits+misses)
system.cpu.dcache.ReadReq_accesses::total     35702615                       # number of ReadReq accesses(hits+misses)
system.cpu.dcache.ReadReq_miss_rate::.cpu.data     0.000003                       # miss rate for ReadReq accesses
system.cpu.dcache.ReadReq_miss_rate::total     0.000003                       # miss rate for ReadReq accesses
system.cpu.dcache.ReadReq_avg_miss_latency::.cpu.data 77693.396226                       # average ReadReq miss latency
system.cpu.dcache.ReadReq_avg_miss_latency::total 77693.396226                       # average ReadReq miss latency
system.cpu.dcache.ReadReq_mshr_hits::.cpu.data            5                       # number of ReadReq MSHR hits
system.cpu.dcache.ReadReq_mshr_hits::total            5                       # number of ReadReq MSHR hits
system.cpu.dcache.ReadReq_mshr_misses::.cpu.data          101                       # number of ReadReq MSHR misses
system.cpu.dcache.ReadReq_mshr_misses::total          101                       # number of ReadReq MSHR misses
system.cpu.dcache.ReadReq_mshr_miss_latency::.cpu.data      7687500                       # number of ReadReq MSHR miss cycles
system.cpu.dcache.ReadReq_mshr_miss_latency::total      7687500                       # number of ReadReq MSHR miss cycles
system.cpu.dcache.ReadReq_mshr_miss_rate::.cpu.data     0.000003                       # mshr miss rate for ReadReq accesses
system.cpu.dcache.ReadReq_mshr_miss_rate::total     0.000003                       # mshr miss rate for ReadReq accesses
system.cpu.dcache.ReadReq_avg_mshr_miss_latency::.cpu.data 76113.861386                       # average ReadReq mshr miss latency
system.cpu.dcache.ReadReq_avg_mshr_miss_latency::total 76113.861386                       # average ReadReq mshr miss latency
system.cpu.dcache.WriteReq_hits::.cpu.data     10117517                       # number of WriteReq hits
system.cpu.dcache.WriteReq_hits::total       10117517                       # number of WriteReq hits
system.cpu.dcache.WriteReq_misses::.cpu.data      2974970                       # number of WriteReq misses
system.cpu.dcache.WriteReq_misses::total      2974970                       # number of WriteReq misses
system.cpu.dcache.WriteReq_miss_latency::.cpu.data 237268287000                       # number of WriteReq miss cycles
system.cpu.dcache.WriteReq_miss_latency::total 237268287000                       # number of WriteReq miss cycles
system.cpu.dcache.WriteReq_accesses::.cpu.data     13092487                       # number of WriteReq accesses(hits+misses)
system.cpu.dcache.WriteReq_accesses::total     13092487                       # number of WriteReq accesses(hits+misses)
system.cpu.dcache.WriteReq_miss_rate::.cpu.data     0.227227                       # miss rate for WriteReq accesses
system.cpu.dcache.WriteReq_miss_rate::total     0.227227                       # miss rate for WriteReq accesses
system.cpu.dcache.WriteReq_avg_miss_latency::.cpu.data 79754.850301                       # average WriteReq miss latency
system.cpu.dcache.WriteReq_avg_miss_latency::total 79754.850301                       # average WriteReq miss latency
system.cpu.dcache.WriteReq_mshr_hits::.cpu.data      1487474                       # number of WriteReq MSHR hits
system.cpu.dcache.WriteReq_mshr_hits::total      1487474                       # number of WriteReq MSHR hits
system.cpu.dcache.WriteReq_mshr_misses::.cpu.data      1487496                       # number of WriteReq MSHR misses
system.cpu.dcache.WriteReq_mshr_misses::total      1487496                       # number of WriteReq MSHR misses
system.cpu.dcache.WriteReq_mshr_miss_latency::.cpu.data 121094193500                       # number of WriteReq MSHR miss cycles
system.cpu.dcache.WriteReq_mshr_miss_latency::total 121094193500                       # number of WriteReq MSHR miss cycles
system.cpu.dcache.WriteReq_mshr_miss_rate::.cpu.data     0.113614                       # mshr miss rate for WriteReq accesses
system.cpu.dcache.WriteReq_mshr_miss_rate::total     0.113614                       # mshr miss rate for WriteReq accesses
system.cpu.dcache.WriteReq_avg_mshr_miss_latency::.cpu.data 81408.080089                       # average WriteReq mshr miss latency
system.cpu.dcache.WriteReq_avg_mshr_miss_latency::total 81408.080089                       # average WriteReq mshr miss latency
system.cpu.dcache.SoftPFReq_hits::.cpu.data           30                       # number of SoftPFReq hits
system.cpu.dcache.SoftPFReq_hits::total            30                       # number of SoftPFReq hits
system.cpu.dcache.SoftPFReq_misses::.cpu.data           22                       # number of SoftPFReq misses
system.cpu.dcache.SoftPFReq_misses::total           22                       # number of SoftPFReq misses
system.cpu.dcache.SoftPFReq_accesses::.cpu.data           52                       # number of SoftPFReq accesses(hits+misses)
system.cpu.dcache.SoftPFReq_accesses::total           52                       # number of SoftPFReq accesses(hits+misses)
system.cpu.dcache.SoftPFReq_miss_rate::.cpu.data     0.423077                       # miss rate for SoftPFReq accesses
system.cpu.dcache.SoftPFReq_miss_rate::total     0.423077                       # miss rate for SoftPFReq accesses
system.cpu.dcache.SoftPFReq_mshr_misses::.cpu.data           17                       # number of SoftPFReq MSHR misses
system.cpu.dcache.SoftPFReq_mshr_misses::total           17                       # number of SoftPFReq MSHR misses
system.cpu.dcache.SoftPFReq_mshr_miss_latency::.cpu.data      1361500                       # number of SoftPFReq MSHR miss cycles
system.cpu.dcache.SoftPFReq_mshr_miss_latency::total      1361500                       # number of SoftPFReq MSHR miss cycles
system.cpu.dcache.SoftPFReq_mshr_miss_rate::.cpu.data     0.326923                       # mshr miss rate for SoftPFReq accesses
system.cpu.dcache.SoftPFReq_mshr_miss_rate::total     0.326923                       # mshr miss rate for SoftPFReq accesses
system.cpu.dcache.SoftPFReq_avg_mshr_miss_latency::.cpu.data 80088.235294                       # average SoftPFReq mshr miss latency
system.cpu.dcache.SoftPFReq_avg_mshr_miss_latency::total 80088.235294                       # average SoftPFReq mshr miss latency
system.cpu.dcache.LoadLockedReq_hits::.cpu.data           13                       # number of LoadLockedReq hits
system.cpu.dcache.LoadLockedReq_hits::total           13                       # number of LoadLockedReq hits
system.cpu.dcache.LoadLockedReq_misses::.cpu.data            1                       # number of LoadLockedReq misses
system.cpu.dcache.LoadLockedReq_misses::total            1                       # number of LoadLockedReq misses
system.cpu.dcache.LoadLockedReq_miss_latency::.cpu.data        86500                       # number of LoadLockedReq miss cycles
system.cpu.dcache.LoadLockedReq_miss_latency::total        86500                       # number of LoadLockedReq miss cycles
system.cpu.dcache.LoadLockedReq_accesses::.cpu.data           14                       # number of LoadLockedReq accesses(hits+misses)
system.cpu.dcache.LoadLockedReq_accesses::total           14                       # number of LoadLockedReq accesses(hits+misses)
system.cpu.dcache.LoadLockedReq_miss_rate::.cpu.data     0.071429                       # miss rate for LoadLockedReq accesses
system.cpu.dcache.LoadLockedReq_miss_rate::total     0.071429                       # miss rate for LoadLockedReq accesses
system.cpu.dcache.LoadLockedReq_avg_miss_latency::.cpu.data        86500                       # average LoadLockedReq miss latency
system.cpu.dcache.LoadLockedReq_avg_miss_latency::total        86500                       # average LoadLockedReq miss latency
system.cpu.dcache.LoadLockedReq_mshr_misses::.cpu.data            1                       # number of LoadLockedReq MSHR misses
system.cpu.dcache.LoadLockedReq_mshr_misses::total            1                       # number of LoadLockedReq MSHR misses
system.cpu.dcache.LoadLockedReq_mshr_miss_latency::.cpu.data        85500                       # number of LoadLockedReq MSHR miss cycles
system.cpu.dcache.LoadLockedReq_mshr_miss_latency::total        85500                       # number of LoadLockedReq MSHR miss cycles
system.cpu.dcache.LoadLockedReq_mshr_miss_rate::.cpu.data     0.071429                       # mshr miss rate for LoadLockedReq accesses
system.cpu.dcache.LoadLockedReq_mshr_miss_rate::total     0.071429                       # mshr miss rate for LoadLockedReq accesses
system.cpu.dcache.LoadLockedReq_avg_mshr_miss_latency::.cpu.data        85500                       # average LoadLockedReq mshr miss latency
system.cpu.dcache.LoadLockedReq_avg_mshr_miss_latency::total        85500                       # average LoadLockedReq mshr miss latency
system.cpu.dcache.StoreCondReq_hits::.cpu.data           14                       # number of StoreCondReq hits
system.cpu.dcache.StoreCondReq_hits::total           14                       # number of StoreCondReq hits
system.cpu.dcache.StoreCondReq_accesses::.cpu.data           14                       # number of StoreCondReq accesses(hits+misses)
system.cpu.dcache.StoreCondReq_accesses::total           14                       # number of StoreCondReq accesses(hits+misses)
system.cpu.dcache.power_state.pwrStateResidencyTicks::UNDEFINED 174778650000                       # Cumulative time (in ticks) in various power states
system.cpu.dcache.tags.tagsinuse          1023.432779                       # Cycle average of tags in use
system.cpu.dcache.tags.total_refs            47307698                       # Total number of references to valid blocks.
system.cpu.dcache.tags.sampled_refs           1487615                       # Sample count of references to valid blocks.
system.cpu.dcache.tags.avg_refs             31.801036                       # Average number of references to valid blocks.
system.cpu.dcache.tags.warmup_cycle            195500                       # Cycle when the warmup percentage was hit.
system.cpu.dcache.tags.occ_blocks::.cpu.data  1023.432779                       # Average occupied blocks per requestor
system.cpu.dcache.tags.occ_percent::.cpu.data     0.999446                       # Average percentage of cache occupancy
system.cpu.dcache.tags.occ_percent::total     0.999446                       # Average percentage of cache occupancy
system.cpu.dcache.tags.occ_task_id_blocks::1024         1024                       # Occupied blocks per task id
system.cpu.dcache.tags.age_task_id_blocks_1024::0           84                       # Occupied blocks per task id
system.cpu.dcache.tags.age_task_id_blocks_1024::1          764                       # Occupied blocks per task id
system.cpu.dcache.tags.age_task_id_blocks_1024::2          173                       # Occupied blocks per task id
system.cpu.dcache.tags.age_task_id_blocks_1024::4            3                       # Occupied blocks per task id
system.cpu.dcache.tags.occ_task_id_percent::1024            1                       # Percentage of cache occupancy per task id
system.cpu.dcache.tags.tag_accesses          99077979                       # Number of tag accesses
system.cpu.dcache.tags.data_accesses         99077979                       # Number of data accesses
system.cpu.dcache.tags.power_state.pwrStateResidencyTicks::UNDEFINED 174778650000                       # Cumulative time (in ticks) in various power states
system.cpu.dtb.instHits                             0                       # ITB inst hits
system.cpu.dtb.instMisses                           0                       # ITB inst misses
system.cpu.dtb.readHits                             0                       # DTB read hits
system.cpu.dtb.readMisses                           0                       # DTB read misses
system.cpu.dtb.writeHits                            0                       # DTB write hits
system.cpu.dtb.writeMisses                          0                       # DTB write misses
system.cpu.dtb.inserts                              0                       # Number of times an entry is inserted into the TLB
system.cpu.dtb.flushTlb                             0                       # Number of times complete TLB was flushed
system.cpu.dtb.flushTlbMva                          0                       # Number of times TLB was flushed by MVA
system.cpu.dtb.flushTlbMvaAsid                      0                       # Number of times TLB was flushed by MVA & ASID
system.cpu.dtb.flushTlbAsid                         0                       # Number of times TLB was flushed by ASID
system.cpu.dtb.flushedEntries                       0                       # Number of entries that have been flushed from TLB
system.cpu.dtb.alignFaults                          0                       # Number of TLB faults due to alignment restrictions
system.cpu.dtb.prefetchFaults                       0                       # Number of TLB faults due to prefetch
system.cpu.dtb.domainFaults                         0                       # Number of TLB faults due to domain restrictions
system.cpu.dtb.permsFaults                          0                       # Number of TLB faults due to permissions restrictions
system.cpu.dtb.readAccesses                         0                       # DTB read accesses
system.cpu.dtb.writeAccesses                        0                       # DTB write accesses
system.cpu.dtb.instAccesses                         0                       # ITB inst accesses
system.cpu.dtb.hits                                 0                       # Total TLB (inst and data) hits
system.cpu.dtb.misses                               0                       # Total TLB (inst and data) misses
system.cpu.dtb.accesses                             0                       # Total TLB (inst and data) accesses
system.cpu.dtb.stage2_mmu.stage2_tlb.instHits            0                       # ITB inst hits
system.cpu.dtb.stage2_mmu.stage2_tlb.instMisses            0                       # ITB inst misses
system.cpu.dtb.stage2_mmu.stage2_tlb.readHits            0                       # DTB read hits
system.cpu.dtb.stage2_mmu.stage2_tlb.readMisses            0                       # DTB read misses
system.cpu.dtb.stage2_mmu.stage2_tlb.writeHits            0                       # DTB write hits
system.cpu.dtb.stage2_mmu.stage2_tlb.writeMisses            0                       # DTB write misses
system.cpu.dtb.stage2_mmu.stage2_tlb.inserts            0                       # Number of times an entry is inserted into the TLB
system.cpu.dtb.stage2_mmu.stage2_tlb.flushTlb            0                       # Number of times complete TLB was flushed
system.cpu.dtb.stage2_mmu.stage2_tlb.flushTlbMva            0                       # Number of times TLB was flushed by MVA
system.cpu.dtb.stage2_mmu.stage2_tlb.flushTlbMvaAsid            0                       # Number of times TLB was flushed by MVA & ASID
system.cpu.dtb.stage2_mmu.stage2_tlb.flushTlbAsid            0                       # Number of times TLB was flushed by ASID
system.cpu.dtb.stage2_mmu.stage2_tlb.flushedEntries            0                       # Number of entries that have been flushed from TLB
system.cpu.dtb.stage2_mmu.stage2_tlb.alignFaults            0                       # Number of TLB faults due to alignment restrictions
system.cpu.dtb.stage2_mmu.stage2_tlb.prefetchFaults            0                       # Number of TLB faults due to prefetch
system.cpu.dtb.stage2_mmu.stage2_tlb.domainFaults            0                       # Number of TLB faults due to domain restrictions
system.cpu.dtb.stage2_mmu.stage2_tlb.permsFaults            0                       # Number of TLB faults due to permissions restrictions
system.cpu.dtb.stage2_mmu.stage2_tlb.readAccesses            0                       # DTB read accesses
system.cpu.dtb.stage2_mmu.stage2_tlb.writeAccesses            0                       # DTB write accesses
system.cpu.dtb.stage2_mmu.stage2_tlb.instAccesses            0                       # ITB inst accesses
system.cpu.dtb.stage2_mmu.stage2_tlb.hits            0                       # Total TLB (inst and data) hits
system.cpu.dtb.stage2_mmu.stage2_tlb.misses            0                       # Total TLB (inst and data) misses
system.cpu.dtb.stage2_mmu.stage2_tlb.accesses            0                       # Total TLB (inst and data) accesses
system.cpu.dtb.stage2_mmu.stage2_tlb.walker.walks            0                       # Table walker walks requested
system.cpu.dtb.stage2_mmu.stage2_tlb.walker.requestOrigin_Requested::Data            0                       # Table walker requests started/completed, data/inst
system.cpu.dtb.stage2_mmu.stage2_tlb.walker.requestOrigin_Requested::Inst            0                       # Table walker requests started/completed, data/inst
system.cpu.dtb.stage2_mmu.stage2_tlb.walker.requestOrigin_Requested::total            0                       # Table walker requests started/completed, data/inst
system.cpu.dtb.stage2_mmu.stage2_tlb.walker.requestOrigin_Completed::Data            0                       # Table walker requests started/completed, data/inst
system.cpu.dtb.stage2_mmu.stage2_tlb.walker.requestOrigin_Completed::Inst            0                       # Table walker requests started/completed, data/inst
system.cpu.dtb.stage2_mmu.stage2_tlb.walker.requestOrigin_Completed::total            0                       # Table walker requests started/completed, data/inst
system.cpu.dtb.stage2_mmu.stage2_tlb.walker.requestOrigin::total            0                       # Table walker requests started/completed, data/inst
system.cpu.dtb.stage2_mmu.stage2_tlb.walker.power_state.pwrStateResidencyTicks::UNDEFINED 174778650000                       # Cumulative time (in ticks) in various power states
system.cpu.dtb.walker.walks                         0                       # Table walker walks requested
system.cpu.dtb.walker.requestOrigin_Requested::Data            0                       # Table walker requests started/completed, data/inst
system.cpu.dtb.walker.requestOrigin_Requested::Inst            0                       # Table walker requests started/completed, data/inst
system.cpu.dtb.walker.requestOrigin_Requested::total            0                       # Table walker requests started/completed, data/inst
system.cpu.dtb.walker.requestOrigin_Completed::Data            0                       # Table walker requests started/completed, data/inst
system.cpu.dtb.walker.requestOrigin_Completed::Inst            0                       # Table walker requests started/completed, data/inst
system.cpu.dtb.walker.requestOrigin_Completed::total            0                       # Table walker requests started/completed, data/inst
system.cpu.dtb.walker.requestOrigin::total            0                       # Table walker requests started/completed, data/inst
system.cpu.dtb.walker.power_state.pwrStateResidencyTicks::UNDEFINED 174778650000                       # Cumulative time (in ticks) in various power states
system.cpu.fetch2.intInstructions            49669553                       # Number of integer instructions successfully decoded
system.cpu.fetch2.fpInstructions                    0                       # Number of floating point instructions successfully decoded
system.cpu.fetch2.vecInstructions                   0                       # Number of SIMD instructions successfully decoded
system.cpu.fetch2.loadInstructions           37092363                       # Number of memory load instructions successfully decoded
system.cpu.fetch2.storeInstructions          13161015                       # Number of memory store instructions successfully decoded
system.cpu.fetch2.amoInstructions                   0                       # Number of memory atomic instructions successfully decoded
system.cpu.icache.demand_hits::.cpu.inst      6045470                       # number of demand (read+write) hits
system.cpu.icache.demand_hits::total          6045470                       # number of demand (read+write) hits
system.cpu.icache.overall_hits::.cpu.inst      6045470                       # number of overall hits
system.cpu.icache.overall_hits::total         6045470                       # number of overall hits
system.cpu.icache.demand_misses::.cpu.inst          591                       # number of demand (read+write) misses
system.cpu.icache.demand_misses::total            591                       # number of demand (read+write) misses
system.cpu.icache.overall_misses::.cpu.inst          591                       # number of overall misses
system.cpu.icache.overall_misses::total           591                       # number of overall misses
system.cpu.icache.demand_miss_latency::.cpu.inst     39496500                       # number of demand (read+write) miss cycles
system.cpu.icache.demand_miss_latency::total     39496500                       # number of demand (read+write) miss cycles
system.cpu.icache.overall_miss_latency::.cpu.inst     39496500                       # number of overall miss cycles
system.cpu.icache.overall_miss_latency::total     39496500                       # number of overall miss cycles
system.cpu.icache.demand_accesses::.cpu.inst      6046061                       # number of demand (read+write) accesses
system.cpu.icache.demand_accesses::total      6046061                       # number of demand (read+write) accesses
system.cpu.icache.overall_accesses::.cpu.inst      6046061                       # number of overall (read+write) accesses
system.cpu.icache.overall_accesses::total      6046061                       # number of overall (read+write) accesses
system.cpu.icache.demand_miss_rate::.cpu.inst     0.000098                       # miss rate for demand accesses
system.cpu.icache.demand_miss_rate::total     0.000098                       # miss rate for demand accesses
system.cpu.icache.overall_miss_rate::.cpu.inst     0.000098                       # miss rate for overall accesses
system.cpu.icache.overall_miss_rate::total     0.000098                       # miss rate for overall accesses
system.cpu.icache.demand_avg_miss_latency::.cpu.inst 66829.949239                       # average overall miss latency
system.cpu.icache.demand_avg_miss_latency::total 66829.949239                       # average overall miss latency
system.cpu.icache.overall_avg_miss_latency::.cpu.inst 66829.949239                       # average overall miss latency
system.cpu.icache.overall_avg_miss_latency::total 66829.949239                       # average overall miss latency
system.cpu.icache.blocked_cycles::no_mshrs            0                       # number of cycles access was blocked
system.cpu.icache.blocked_cycles::no_targets            0                       # number of cycles access was blocked
system.cpu.icache.blocked::no_mshrs                 0                       # number of cycles access was blocked
system.cpu.icache.blocked::no_targets               0                       # number of cycles access was blocked
system.cpu.icache.avg_blocked_cycles::no_mshrs          nan                       # average number of cycles each access was blocked
system.cpu.icache.avg_blocked_cycles::no_targets          nan                       # average number of cycles each access was blocked
system.cpu.icache.writebacks::.writebacks          260                       # number of writebacks
system.cpu.icache.writebacks::total               260                       # number of writebacks
system.cpu.icache.demand_mshr_misses::.cpu.inst          591                       # number of demand (read+write) MSHR misses
system.cpu.icache.demand_mshr_misses::total          591                       # number of demand (read+write) MSHR misses
system.cpu.icache.overall_mshr_misses::.cpu.inst          591                       # number of overall MSHR misses
system.cpu.icache.overall_mshr_misses::total          591                       # number of overall MSHR misses
system.cpu.icache.demand_mshr_miss_latency::.cpu.inst     38905500                       # number of demand (read+write) MSHR miss cycles
system.cpu.icache.demand_mshr_miss_latency::total     38905500                       # number of demand (read+write) MSHR miss cycles
system.cpu.icache.overall_mshr_miss_latency::.cpu.inst     38905500                       # number of overall MSHR miss cycles
system.cpu.icache.overall_mshr_miss_latency::total     38905500                       # number of overall MSHR miss cycles
system.cpu.icache.demand_mshr_miss_rate::.cpu.inst     0.000098                       # mshr miss rate for demand accesses
system.cpu.icache.demand_mshr_miss_rate::total     0.000098                       # mshr miss rate for demand accesses
system.cpu.icache.overall_mshr_miss_rate::.cpu.inst     0.000098                       # mshr miss rate for overall accesses
system.cpu.icache.overall_mshr_miss_rate::total     0.000098                       # mshr miss rate for overall accesses
system.cpu.icache.demand_avg_mshr_miss_latency::.cpu.inst 65829.949239                       # average overall mshr miss latency
system.cpu.icache.demand_avg_mshr_miss_latency::total 65829.949239                       # average overall mshr miss latency
system.cpu.icache.overall_avg_mshr_miss_latency::.cpu.inst 65829.949239                       # average overall mshr miss latency
system.cpu.icache.overall_avg_mshr_miss_latency::total 65829.949239                       # average overall mshr miss latency
system.cpu.icache.replacements                    260                       # number of replacements
system.cpu.icache.ReadReq_hits::.cpu.inst      6045470                       # number of ReadReq hits
system.cpu.icache.ReadReq_hits::total         6045470                       # number of ReadReq hits
system.cpu.icache.ReadReq_misses::.cpu.inst          591                       # number of ReadReq misses
system.cpu.icache.ReadReq_misses::total           591                       # number of ReadReq misses
system.cpu.icache.ReadReq_miss_latency::.cpu.inst     39496500                       # number of ReadReq miss cycles
system.cpu.icache.ReadReq_miss_latency::total     39496500                       # number of ReadReq miss cycles
system.cpu.icache.ReadReq_accesses::.cpu.inst      6046061                       # number of ReadReq accesses(hits+misses)
system.cpu.icache.ReadReq_accesses::total      6046061                       # number of ReadReq accesses(hits+misses)
system.cpu.icache.ReadReq_miss_rate::.cpu.inst     0.000098                       # miss rate for ReadReq accesses
system.cpu.icache.ReadReq_miss_rate::total     0.000098                       # miss rate for ReadReq accesses
system.cpu.icache.ReadReq_avg_miss_latency::.cpu.inst 66829.949239                       # average ReadReq miss latency
system.cpu.icache.ReadReq_avg_miss_latency::total 66829.949239                       # average ReadReq miss latency
system.cpu.icache.ReadReq_mshr_misses::.cpu.inst          591                       # number of ReadReq MSHR misses
system.cpu.icache.ReadReq_mshr_misses::total          591                       # number of ReadReq MSHR misses
system.cpu.icache.ReadReq_mshr_miss_latency::.cpu.inst     38905500                       # number of ReadReq MSHR miss cycles
system.cpu.icache.ReadReq_mshr_miss_latency::total     38905500                       # number of ReadReq MSHR miss cycles
system.cpu.icache.ReadReq_mshr_miss_rate::.cpu.inst     0.000098                       # mshr miss rate for ReadReq accesses
system.cpu.icache.ReadReq_mshr_miss_rate::total     0.000098                       # mshr miss rate for ReadReq accesses
system.cpu.icache.ReadReq_avg_mshr_miss_latency::.cpu.inst 65829.949239                       # average ReadReq mshr miss latency
system.cpu.icache.ReadReq_avg_mshr_miss_latency::total 65829.949239                       # average ReadReq mshr miss latency
system.cpu.icache.power_state.pwrStateResidencyTicks::UNDEFINED 174778650000                       # Cumulative time (in ticks) in various power states
system.cpu.icache.tags.tagsinuse           330.957516                       # Cycle average of tags in use
system.cpu.icache.tags.total_refs             6046061                       # Total number of references to valid blocks.
system.cpu.icache.tags.sampled_refs               591                       # Sample count of references to valid blocks.
system.cpu.icache.tags.avg_refs          10230.221658                       # Average number of references to valid blocks.
system.cpu.icache.tags.warmup_cycle             87500                       # Cycle when the warmup percentage was hit.
system.cpu.icache.tags.occ_blocks::.cpu.inst   330.957516                       # Average occupied blocks per requestor
system.cpu.icache.tags.occ_percent::.cpu.inst     0.646401                       # Average percentage of cache occupancy
system.cpu.icache.tags.occ_percent::total     0.646401                       # Average percentage of cache occupancy
system.cpu.icache.tags.occ_task_id_blocks::1024          331                       # Occupied blocks per task id
system.cpu.icache.tags.age_task_id_blocks_1024::4          331                       # Occupied blocks per task id
system.cpu.icache.tags.occ_task_id_percent::1024     0.646484                       # Percentage of cache occupancy per task id
system.cpu.icache.tags.tag_accesses          12092713                       # Number of tag accesses
system.cpu.icache.tags.data_accesses         12092713                       # Number of data accesses
system.cpu.icache.tags.power_state.pwrStateResidencyTicks::UNDEFINED 174778650000                       # Cumulative time (in ticks) in various power states
system.cpu.itb.instHits                             0                       # ITB inst hits
system.cpu.itb.instMisses                           0                       # ITB inst misses
system.cpu.itb.readHits                             0                       # DTB read hits
system.cpu.itb.readMisses                           0                       # DTB read misses
system.cpu.itb.writeHits                            0                       # DTB write hits
system.cpu.itb.writeMisses                          0                       # DTB write misses
system.cpu.itb.inserts                              0                       # Number of times an entry is inserted into the TLB
system.cpu.itb.flushTlb                             0                       # Number of times complete TLB was flushed
system.cpu.itb.flushTlbMva                          0                       # Number of times TLB was flushed by MVA
system.cpu.itb.flushTlbMvaAsid                      0                       # Number of times TLB was flushed by MVA & ASID
system.cpu.itb.flushTlbAsid                         0                       # Number of times TLB was flushed by ASID
system.cpu.itb.flushedEntries                       0                       # Number of entries that have been flushed from TLB
system.cpu.itb.alignFaults                          0                       # Number of TLB faults due to alignment restrictions
system.cpu.itb.prefetchFaults                       0                       # Number of TLB faults due to prefetch
system.cpu.itb.domainFaults                         0                       # Number of TLB faults due to domain restrictions
system.cpu.itb.permsFaults                          0                       # Number of TLB faults due to permissions restrictions
system.cpu.itb.readAccesses                         0                       # DTB read accesses
system.cpu.itb.writeAccesses                        0                       # DTB write accesses
system.cpu.itb.instAccesses                         0                       # ITB inst accesses
system.cpu.itb.hits                                 0                       # Total TLB (inst and data) hits
system.cpu.itb.misses                               0                       # Total TLB (inst and data) misses
system.cpu.itb.accesses                             0                       # Total TLB (inst and data) accesses
system.cpu.itb.stage2_mmu.stage2_tlb.instHits            0                       # ITB inst hits
system.cpu.itb.stage2_mmu.stage2_tlb.instMisses            0                       # ITB inst misses
system.cpu.itb.stage2_mmu.stage2_tlb.readHits            0                       # DTB read hits
system.cpu.itb.stage2_mmu.stage2_tlb.readMisses            0                       # DTB read misses
system.cpu.itb.stage2_mmu.stage2_tlb.writeHits            0                       # DTB write hits
system.cpu.itb.stage2_mmu.stage2_tlb.writeMisses            0                       # DTB write misses
system.cpu.itb.stage2_mmu.stage2_tlb.inserts            0                       # Number of times an entry is inserted into the TLB
system.cpu.itb.stage2_mmu.stage2_tlb.flushTlb            0                       # Number of times complete TLB was flushed
system.cpu.itb.stage2_mmu.stage2_tlb.flushTlbMva            0                       # Number of times TLB was flushed by MVA
system.cpu.itb.stage2_mmu.stage2_tlb.flushTlbMvaAsid            0                       # Number of times TLB was flushed by MVA & ASID
system.cpu.itb.stage2_mmu.stage2_tlb.flushTlbAsid            0                       # Number of times TLB was flushed by ASID
system.cpu.itb.stage2_mmu.stage2_tlb.flushedEntries            0                       # Number of entries that have been flushed from TLB
system.cpu.itb.stage2_mmu.stage2_tlb.alignFaults            0                       # Number of TLB faults due to alignment restrictions
system.cpu.itb.stage2_mmu.stage2_tlb.prefetchFaults            0                       # Number of TLB faults due to prefetch
system.cpu.itb.stage2_mmu.stage2_tlb.domainFaults            0                       # Number of TLB faults due to domain restrictions
system.cpu.itb.stage2_mmu.stage2_tlb.permsFaults            0                       # Number of TLB faults due to permissions restrictions
system.cpu.itb.stage2_mmu.stage2_tlb.readAccesses            0                       # DTB read accesses
system.cpu.itb.stage2_mmu.stage2_tlb.writeAccesses            0                       # DTB write accesses
system.cpu.itb.stage2_mmu.stage2_tlb.instAccesses            0                       # ITB inst accesses
system.cpu.itb.stage2_mmu.stage2_tlb.hits            0                       # Total TLB (inst and data) hits
system.cpu.itb.stage2_mmu.stage2_tlb.misses            0                       # Total TLB (inst and data) misses
system.cpu.itb.stage2_mmu.stage2_tlb.accesses            0                       # Total TLB (inst and data) accesses
system.cpu.itb.stage2_mmu.stage2_tlb.walker.walks            0                       # Table walker walks requested
system.cpu.itb.stage2_mmu.stage2_tlb.walker.requestOrigin_Requested::Data            0                       # Table walker requests started/completed, data/inst
system.cpu.itb.stage2_mmu.stage2_tlb.walker.requestOrigin_Requested::Inst            0                       # Table walker requests started/completed, data/inst
system.cpu.itb.stage2_mmu.stage2_tlb.walker.requestOrigin_Requested::total            0                       # Table walker requests started/completed, data/inst
system.cpu.itb.stage2_mmu.stage2_tlb.walker.requestOrigin_Completed::Data            0                       # Table walker requests started/completed, data/inst
system.cpu.itb.stage2_mmu.stage2_tlb.walker.requestOrigin_Completed::Inst            0                       # Table walker requests started/completed, data/inst
system.cpu.itb.stage2_mmu.stage2_tlb.walker.requestOrigin_Completed::total            0                       # Table walker requests started/completed, data/inst
system.cpu.itb.stage2_mmu.stage2_tlb.walker.requestOrigin::total            0                       # Table walker requests started/completed, data/inst
system.cpu.itb.stage2_mmu.stage2_tlb.walker.power_state.pwrStateResidencyTicks::UNDEFINED 174778650000                       # Cumulative time (in ticks) in various power states
system.cpu.itb.walker.walks                         0                       # Table walker walks requested
system.cpu.itb.walker.requestOrigin_Requested::Data            0                       # Table walker requests started/completed, data/inst
system.cpu.itb.walker.requestOrigin_Requested::Inst            0                       # Table walker requests started/completed, data/inst
system.cpu.itb.walker.requestOrigin_Requested::total            0                       # Table walker requests started/completed, data/inst
system.cpu.itb.walker.requestOrigin_Completed::Data            0                       # Table walker requests started/completed, data/inst
system.cpu.itb.walker.requestOrigin_Completed::Inst            0                       # Table walker requests started/completed, data/inst
system.cpu.itb.walker.requestOrigin_Completed::total            0                       # Table walker requests started/completed, data/inst
system.cpu.itb.walker.requestOrigin::total            0                       # Table walker requests started/completed, data/inst
system.cpu.itb.walker.power_state.pwrStateResidencyTicks::UNDEFINED 174778650000                       # Cumulative time (in ticks) in various power states
system.cpu.power_state.pwrStateResidencyTicks::ON 174778650000                       # Cumulative time (in ticks) in various power states
system.cpu.thread_0.numInsts                100000001                       # Number of Instructions committed
system.cpu.thread_0.numOps                  100003447                       # Number of Ops committed
system.cpu.thread_0.numMemRefs                      0                       # Number of Memory References
system.cpu_clk_domain.clock                       500                       # Clock period in ticks
system.cpu_voltage_domain.voltage                   1                       # Voltage in Volts
system.l2.demand_hits::.cpu.inst                   95                       # number of demand (read+write) hits
system.l2.demand_hits::.cpu.data                   13                       # number of demand (read+write) hits
system.l2.demand_hits::total                      108                       # number of demand (read+write) hits
system.l2.overall_hits::.cpu.inst                  95                       # number of overall hits
system.l2.overall_hits::.cpu.data                  13                       # number of overall hits
system.l2.overall_hits::total                     108                       # number of overall hits
system.l2.demand_misses::.cpu.inst                496                       # number of demand (read+write) misses
system.l2.demand_misses::.cpu.data            1487602                       # number of demand (read+write) misses
system.l2.demand_misses::total                1488098                       # number of demand (read+write) misses
system.l2.overall_misses::.cpu.inst               496                       # number of overall misses
system.l2.overall_misses::.cpu.data           1487602                       # number of overall misses
system.l2.overall_misses::total               1488098                       # number of overall misses
system.l2.demand_miss_latency::.cpu.inst     36998500                       # number of demand (read+write) miss cycles
system.l2.demand_miss_latency::.cpu.data 118871756000                       # number of demand (read+write) miss cycles
system.l2.demand_miss_latency::total     118908754500                       # number of demand (read+write) miss cycles
system.l2.overall_miss_latency::.cpu.inst     36998500                       # number of overall miss cycles
system.l2.overall_miss_latency::.cpu.data 118871756000                       # number of overall miss cycles
system.l2.overall_miss_latency::total    118908754500                       # number of overall miss cycles
system.l2.demand_accesses::.cpu.inst              591                       # number of demand (read+write) accesses
system.l2.demand_accesses::.cpu.data          1487615                       # number of demand (read+write) accesses
system.l2.demand_accesses::total              1488206                       # number of demand (read+write) accesses
system.l2.overall_accesses::.cpu.inst             591                       # number of overall (read+write) accesses
system.l2.overall_accesses::.cpu.data         1487615                       # number of overall (read+write) accesses
system.l2.overall_accesses::total             1488206                       # number of overall (read+write) accesses
system.l2.demand_miss_rate::.cpu.inst        0.839255                       # miss rate for demand accesses
system.l2.demand_miss_rate::.cpu.data        0.999991                       # miss rate for demand accesses
system.l2.demand_miss_rate::total            0.999927                       # miss rate for demand accesses
system.l2.overall_miss_rate::.cpu.inst       0.839255                       # miss rate for overall accesses
system.l2.overall_miss_rate::.cpu.data       0.999991                       # miss rate for overall accesses
system.l2.overall_miss_rate::total           0.999927                       # miss rate for overall accesses
system.l2.demand_avg_miss_latency::.cpu.inst 74593.750000                       # average overall miss latency
system.l2.demand_avg_miss_latency::.cpu.data 79908.306120                       # average overall miss latency
system.l2.demand_avg_miss_latency::total 79906.534717                       # average overall miss latency
system.l2.overall_avg_miss_latency::.cpu.inst 74593.750000                       # average overall miss latency
system.l2.overall_avg_miss_latency::.cpu.data 79908.306120                       # average overall miss latency
system.l2.overall_avg_miss_latency::total 79906.534717                       # average overall miss latency
system.l2.blocked_cycles::no_mshrs                  0                       # number of cycles access was blocked
system.l2.blocked_cycles::no_targets                0                       # number of cycles access was blocked
system.l2.blocked::no_mshrs                         0                       # number of cycles access was blocked
system.l2.blocked::no_targets                       0                       # number of cycles access was blocked
system.l2.avg_blocked_cycles::no_mshrs            nan                       # average number of cycles each access was blocked
system.l2.avg_blocked_cycles::no_targets          nan                       # average number of cycles each access was blocked
system.l2.writebacks::.writebacks             1454742                       # number of writebacks
system.l2.writebacks::total                   1454742                       # number of writebacks
system.l2.demand_mshr_hits::.cpu.inst               2                       # number of demand (read+write) MSHR hits
system.l2.demand_mshr_hits::.cpu.data               1                       # number of demand (read+write) MSHR hits
system.l2.demand_mshr_hits::total                   3                       # number of demand (read+write) MSHR hits
system.l2.overall_mshr_hits::.cpu.inst              2                       # number of overall MSHR hits
system.l2.overall_mshr_hits::.cpu.data              1                       # number of overall MSHR hits
system.l2.overall_mshr_hits::total                  3                       # number of overall MSHR hits
system.l2.demand_mshr_misses::.cpu.inst           494                       # number of demand (read+write) MSHR misses
system.l2.demand_mshr_misses::.cpu.data       1487601                       # number of demand (read+write) MSHR misses
system.l2.demand_mshr_misses::total           1488095                       # number of demand (read+write) MSHR misses
system.l2.overall_mshr_misses::.cpu.inst          494                       # number of overall MSHR misses
system.l2.overall_mshr_misses::.cpu.data      1487601                       # number of overall MSHR misses
system.l2.overall_mshr_misses::total          1488095                       # number of overall MSHR misses
system.l2.demand_mshr_miss_latency::.cpu.inst     31937500                       # number of demand (read+write) MSHR miss cycles
system.l2.demand_mshr_miss_latency::.cpu.data 103995685000                       # number of demand (read+write) MSHR miss cycles
system.l2.demand_mshr_miss_latency::total 104027622500                       # number of demand (read+write) MSHR miss cycles
system.l2.overall_mshr_miss_latency::.cpu.inst     31937500                       # number of overall MSHR miss cycles
system.l2.overall_mshr_miss_latency::.cpu.data 103995685000                       # number of overall MSHR miss cycles
system.l2.overall_mshr_miss_latency::total 104027622500                       # number of overall MSHR miss cycles
system.l2.demand_mshr_miss_rate::.cpu.inst     0.835871                       # mshr miss rate for demand accesses
system.l2.demand_mshr_miss_rate::.cpu.data     0.999991                       # mshr miss rate for demand accesses
system.l2.demand_mshr_miss_rate::total       0.999925                       # mshr miss rate for demand accesses
system.l2.overall_mshr_miss_rate::.cpu.inst     0.835871                       # mshr miss rate for overall accesses
system.l2.overall_mshr_miss_rate::.cpu.data     0.999991                       # mshr miss rate for overall accesses
system.l2.overall_mshr_miss_rate::total      0.999925                       # mshr miss rate for overall accesses
system.l2.demand_avg_mshr_miss_latency::.cpu.inst 64650.809717                       # average overall mshr miss latency
system.l2.demand_avg_mshr_miss_latency::.cpu.data 69908.318830                       # average overall mshr miss latency
system.l2.demand_avg_mshr_miss_latency::total 69906.573505                       # average overall mshr miss latency
system.l2.overall_avg_mshr_miss_latency::.cpu.inst 64650.809717                       # average overall mshr miss latency
system.l2.overall_avg_mshr_miss_latency::.cpu.data 69908.318830                       # average overall mshr miss latency
system.l2.overall_avg_mshr_miss_latency::total 69906.573505                       # average overall mshr miss latency
system.l2.replacements                        1455327                       # number of replacements
system.l2.WritebackDirty_hits::.writebacks      1486489                       # number of WritebackDirty hits
system.l2.WritebackDirty_hits::total          1486489                       # number of WritebackDirty hits
system.l2.WritebackDirty_accesses::.writebacks      1486489                       # number of WritebackDirty accesses(hits+misses)
system.l2.WritebackDirty_accesses::total      1486489                       # number of WritebackDirty accesses(hits+misses)
system.l2.WritebackClean_hits::.writebacks          241                       # number of WritebackClean hits
system.l2.WritebackClean_hits::total              241                       # number of WritebackClean hits
system.l2.WritebackClean_accesses::.writebacks          241                       # number of WritebackClean accesses(hits+misses)
system.l2.WritebackClean_accesses::total          241                       # number of WritebackClean accesses(hits+misses)
system.l2.ReadExReq_misses::.cpu.data         1487496                       # number of ReadExReq misses
system.l2.ReadExReq_misses::total             1487496                       # number of ReadExReq misses
system.l2.ReadExReq_miss_latency::.cpu.data 118862949000                       # number of ReadExReq miss cycles
system.l2.ReadExReq_miss_latency::total  118862949000                       # number of ReadExReq miss cycles
system.l2.ReadExReq_accesses::.cpu.data       1487496                       # number of ReadExReq accesses(hits+misses)
system.l2.ReadExReq_accesses::total           1487496                       # number of ReadExReq accesses(hits+misses)
system.l2.ReadExReq_miss_rate::.cpu.data            1                       # miss rate for ReadExReq accesses
system.l2.ReadExReq_miss_rate::total                1                       # miss rate for ReadExReq accesses
system.l2.ReadExReq_avg_miss_latency::.cpu.data 79908.079753                       # average ReadExReq miss latency
system.l2.ReadExReq_avg_miss_latency::total 79908.079753                       # average ReadExReq miss latency
system.l2.ReadExReq_mshr_misses::.cpu.data      1487496                       # number of ReadExReq MSHR misses
system.l2.ReadExReq_mshr_misses::total        1487496                       # number of ReadExReq MSHR misses
system.l2.ReadExReq_mshr_miss_latency::.cpu.data 103987989000                       # number of ReadExReq MSHR miss cycles
system.l2.ReadExReq_mshr_miss_latency::total 103987989000                       # number of ReadExReq MSHR miss cycles
system.l2.ReadExReq_mshr_miss_rate::.cpu.data            1                       # mshr miss rate for ReadExReq accesses
system.l2.ReadExReq_mshr_miss_rate::total            1                       # mshr miss rate for ReadExReq accesses
system.l2.ReadExReq_avg_mshr_miss_latency::.cpu.data 69908.079753                       # average ReadExReq mshr miss latency
system.l2.ReadExReq_avg_mshr_miss_latency::total 69908.079753                       # average ReadExReq mshr miss latency
system.l2.ReadCleanReq_hits::.cpu.inst             95                       # number of ReadCleanReq hits
system.l2.ReadCleanReq_hits::total                 95                       # number of ReadCleanReq hits
system.l2.ReadCleanReq_misses::.cpu.inst          496                       # number of ReadCleanReq misses
system.l2.ReadCleanReq_misses::total              496                       # number of ReadCleanReq misses
system.l2.ReadCleanReq_miss_latency::.cpu.inst     36998500                       # number of ReadCleanReq miss cycles
system.l2.ReadCleanReq_miss_latency::total     36998500                       # number of ReadCleanReq miss cycles
system.l2.ReadCleanReq_accesses::.cpu.inst          591                       # number of ReadCleanReq accesses(hits+misses)
system.l2.ReadCleanReq_accesses::total            591                       # number of ReadCleanReq accesses(hits+misses)
system.l2.ReadCleanReq_miss_rate::.cpu.inst     0.839255                       # miss rate for ReadCleanReq accesses
system.l2.ReadCleanReq_miss_rate::total      0.839255                       # miss rate for ReadCleanReq accesses
system.l2.ReadCleanReq_avg_miss_latency::.cpu.inst 74593.750000                       # average ReadCleanReq miss latency
system.l2.ReadCleanReq_avg_miss_latency::total 74593.750000                       # average ReadCleanReq miss latency
system.l2.ReadCleanReq_mshr_hits::.cpu.inst            2                       # number of ReadCleanReq MSHR hits
system.l2.ReadCleanReq_mshr_hits::total             2                       # number of ReadCleanReq MSHR hits
system.l2.ReadCleanReq_mshr_misses::.cpu.inst          494                       # number of ReadCleanReq MSHR misses
system.l2.ReadCleanReq_mshr_misses::total          494                       # number of ReadCleanReq MSHR misses
system.l2.ReadCleanReq_mshr_miss_latency::.cpu.inst     31937500                       # number of ReadCleanReq MSHR miss cycles
system.l2.ReadCleanReq_mshr_miss_latency::total     31937500                       # number of ReadCleanReq MSHR miss cycles
system.l2.ReadCleanReq_mshr_miss_rate::.cpu.inst     0.835871                       # mshr miss rate for ReadCleanReq accesses
system.l2.ReadCleanReq_mshr_miss_rate::total     0.835871                       # mshr miss rate for ReadCleanReq accesses
system.l2.ReadCleanReq_avg_mshr_miss_latency::.cpu.inst 64650.809717                       # average ReadCleanReq mshr miss latency
system.l2.ReadCleanReq_avg_mshr_miss_latency::total 64650.809717                       # average ReadCleanReq mshr miss latency
system.l2.ReadSharedReq_hits::.cpu.data            13                       # number of ReadSharedReq hits
system.l2.ReadSharedReq_hits::total                13                       # number of ReadSharedReq hits
system.l2.ReadSharedReq_misses::.cpu.data          106                       # number of ReadSharedReq misses
system.l2.ReadSharedReq_misses::total             106                       # number of ReadSharedReq misses
system.l2.ReadSharedReq_miss_latency::.cpu.data      8807000                       # number of ReadSharedReq miss cycles
system.l2.ReadSharedReq_miss_latency::total      8807000                       # number of ReadSharedReq miss cycles
system.l2.ReadSharedReq_accesses::.cpu.data          119                       # number of ReadSharedReq accesses(hits+misses)
system.l2.ReadSharedReq_accesses::total           119                       # number of ReadSharedReq accesses(hits+misses)
system.l2.ReadSharedReq_miss_rate::.cpu.data     0.890756                       # miss rate for ReadSharedReq accesses
system.l2.ReadSharedReq_miss_rate::total     0.890756                       # miss rate for ReadSharedReq accesses
system.l2.ReadSharedReq_avg_miss_latency::.cpu.data 83084.905660                       # average ReadSharedReq miss latency
system.l2.ReadSharedReq_avg_miss_latency::total 83084.905660                       # average ReadSharedReq miss latency
system.l2.ReadSharedReq_mshr_hits::.cpu.data            1                       # number of ReadSharedReq MSHR hits
system.l2.ReadSharedReq_mshr_hits::total            1                       # number of ReadSharedReq MSHR hits
system.l2.ReadSharedReq_mshr_misses::.cpu.data          105                       # number of ReadSharedReq MSHR misses
system.l2.ReadSharedReq_mshr_misses::total          105                       # number of ReadSharedReq MSHR misses
system.l2.ReadSharedReq_mshr_miss_latency::.cpu.data      7696000                       # number of ReadSharedReq MSHR miss cycles
system.l2.ReadSharedReq_mshr_miss_latency::total      7696000                       # number of ReadSharedReq MSHR miss cycles
system.l2.ReadSharedReq_mshr_miss_rate::.cpu.data     0.882353                       # mshr miss rate for ReadSharedReq accesses
system.l2.ReadSharedReq_mshr_miss_rate::total     0.882353                       # mshr miss rate for ReadSharedReq accesses
system.l2.ReadSharedReq_avg_mshr_miss_latency::.cpu.data 73295.238095                       # average ReadSharedReq mshr miss latency
system.l2.ReadSharedReq_avg_mshr_miss_latency::total 73295.238095                       # average ReadSharedReq mshr miss latency
system.l2.power_state.pwrStateResidencyTicks::UNDEFINED 174778650000                       # Cumulative time (in ticks) in various power states
system.l2.tags.tagsinuse                 32428.818500                       # Cycle average of tags in use
system.l2.tags.total_refs                     2975018                       # Total number of references to valid blocks.
system.l2.tags.sampled_refs                   1488095                       # Sample count of references to valid blocks.
system.l2.tags.avg_refs                      1.999212                       # Average number of references to valid blocks.
system.l2.tags.warmup_cycle                     77000                       # Cycle when the warmup percentage was hit.
system.l2.tags.occ_blocks::.cpu.inst        10.013450                       # Average occupied blocks per requestor
system.l2.tags.occ_blocks::.cpu.data     32418.805050                       # Average occupied blocks per requestor
system.l2.tags.occ_percent::.cpu.inst        0.000306                       # Average percentage of cache occupancy
system.l2.tags.occ_percent::.cpu.data        0.989343                       # Average percentage of cache occupancy
system.l2.tags.occ_percent::total            0.989649                       # Average percentage of cache occupancy
system.l2.tags.occ_task_id_blocks::1024         32768                       # Occupied blocks per task id
system.l2.tags.age_task_id_blocks_1024::0           84                       # Occupied blocks per task id
system.l2.tags.age_task_id_blocks_1024::1          764                       # Occupied blocks per task id
system.l2.tags.age_task_id_blocks_1024::2         7654                       # Occupied blocks per task id
system.l2.tags.age_task_id_blocks_1024::3        24266                       # Occupied blocks per task id
system.l2.tags.occ_task_id_percent::1024            1                       # Percentage of cache occupancy per task id
system.l2.tags.tag_accesses                  49088431                       # Number of tag accesses
system.l2.tags.data_accesses                 49088431                       # Number of data accesses
system.l2.tags.power_state.pwrStateResidencyTicks::UNDEFINED 174778650000                       # Cumulative time (in ticks) in various power states
system.mem_ctrls.avgPriority_.writebacks::samples   1454742.00                       # Average QoS priority value for accepted requests
system.mem_ctrls.avgPriority_.cpu.inst::samples       494.00                       # Average QoS priority value for accepted requests
system.mem_ctrls.avgPriority_.cpu.data::samples   1487601.00                       # Average QoS priority value for accepted requests
system.mem_ctrls.priorityMinLatency      0.000000018750                       # per QoS priority minimum request to response latency (s)
system.mem_ctrls.priorityMaxLatency      0.000059702500                       # per QoS priority maximum request to response latency (s)
system.mem_ctrls.numReadWriteTurnArounds        90895                       # Number of turnarounds from READ to WRITE
system.mem_ctrls.numWriteReadTurnArounds        90896                       # Number of turnarounds from WRITE to READ
system.mem_ctrls.numStayReadState             4382252                       # Number of times bus staying in READ state
system.mem_ctrls.numStayWriteState            1367498                       # Number of times bus staying in WRITE state
system.mem_ctrls.readReqs                     1488095                       # Number of read requests accepted
system.mem_ctrls.writeReqs                    1454742                       # Number of write requests accepted
system.mem_ctrls.readBursts                   1488095                       # Number of controller read bursts, including those serviced by the write queue
system.mem_ctrls.writeBursts                  1454742                       # Number of controller write bursts, including those merged in the write queue
system.mem_ctrls.servicedByWrQ                      0                       # Number of controller read bursts serviced by the write queue
system.mem_ctrls.mergedWrBursts                     0                       # Number of controller write bursts merged with an existing one
system.mem_ctrls.neitherReadNorWriteReqs            0                       # Number of requests that are neither read nor write
system.mem_ctrls.avgRdQLen                       1.00                       # Average read queue length when enqueuing
system.mem_ctrls.avgWrQLen                      25.36                       # Average write queue length when enqueuing
system.mem_ctrls.numRdRetry                         0                       # Number of times read queue was full causing retry
system.mem_ctrls.numWrRetry                         0                       # Number of times write queue was full causing retry
system.mem_ctrls.readPktSize::0                     0                       # Read request sizes (log2)
system.mem_ctrls.readPktSize::1                     0                       # Read request sizes (log2)
system.mem_ctrls.readPktSize::2                     0                       # Read request sizes (log2)
system.mem_ctrls.readPktSize::3                     0                       # Read request sizes (log2)
system.mem_ctrls.readPktSize::4                     0                       # Read request sizes (log2)
system.mem_ctrls.readPktSize::5                     0                       # Read request sizes (log2)
system.mem_ctrls.readPktSize::6               1488095                       # Read request sizes (log2)
system.mem_ctrls.writePktSize::0                    0                       # Write request sizes (log2)
system.mem_ctrls.writePktSize::1                    0                       # Write request sizes (log2)
system.mem_ctrls.writePktSize::2                    0                       # Write request sizes (log2)
[...]
system.mem_ctrls.dram.bw_write::.writebacks    532693713                       # Write bandwidth from this memory (bytes/s)
system.mem_ctrls.dram.bw_write::total       532693713                       # Write bandwidth from this memory (bytes/s)
system.mem_ctrls.dram.bw_total::.writebacks    532693713                       # Total bandwidth to/from this memory (bytes/s)
system.mem_ctrls.dram.bw_total::.cpu.inst       180892                       # Total bandwidth to/from this memory (bytes/s)
system.mem_ctrls.dram.bw_total::.cpu.data    544725938                       # Total bandwidth to/from this memory (bytes/s)
system.mem_ctrls.dram.bw_total::total      1077600542                       # Total bandwidth to/from this memory (bytes/s)
system.mem_ctrls.dram.readBursts              1488095                       # Number of DRAM read bursts
system.mem_ctrls.dram.writeBursts             1454711                       # Number of DRAM write bursts
system.mem_ctrls.dram.perBankRdBursts::0        92997                       # Per bank write bursts
system.mem_ctrls.dram.perBankRdBursts::1        92977                       # Per bank write bursts
system.mem_ctrls.dram.perBankRdBursts::2        93052                       # Per bank write bursts
system.mem_ctrls.dram.perBankRdBursts::3        93023                       # Per bank write bursts
system.mem_ctrls.dram.perBankRdBursts::4        93096                       # Per bank write bursts
system.mem_ctrls.dram.perBankRdBursts::5        93064                       # Per bank write bursts
system.mem_ctrls.dram.perBankRdBursts::6        93082                       # Per bank write bursts
system.mem_ctrls.dram.perBankRdBursts::7        93068                       # Per bank write bursts
system.mem_ctrls.dram.perBankRdBursts::8        92999                       # Per bank write bursts
system.mem_ctrls.dram.perBankRdBursts::9        92948                       # Per bank write bursts
system.mem_ctrls.dram.perBankRdBursts::10        92965                       # Per bank write bursts
system.mem_ctrls.dram.perBankRdBursts::11        92952                       # Per bank write bursts
system.mem_ctrls.dram.perBankRdBursts::12        93013                       # Per bank write bursts
system.mem_ctrls.dram.perBankRdBursts::13        92931                       # Per bank write bursts
system.mem_ctrls.dram.perBankRdBursts::14        92945                       # Per bank write bursts
system.mem_ctrls.dram.perBankRdBursts::15        92983                       # Per bank write bursts
system.mem_ctrls.dram.perBankWrBursts::0        90902                       # Per bank write bursts
system.mem_ctrls.dram.perBankWrBursts::1        90895                       # Per bank write bursts
system.mem_ctrls.dram.perBankWrBursts::2        90885                       # Per bank write bursts
system.mem_ctrls.dram.perBankWrBursts::3        90945                       # Per bank write bursts
system.mem_ctrls.dram.perBankWrBursts::4        91008                       # Per bank write bursts
system.mem_ctrls.dram.perBankWrBursts::5        91008                       # Per bank write bursts
system.mem_ctrls.dram.perBankWrBursts::6        91008                       # Per bank write bursts
system.mem_ctrls.dram.perBankWrBursts::7        90978                       # Per bank write bursts
system.mem_ctrls.dram.perBankWrBursts::8        90880                       # Per bank write bursts
system.mem_ctrls.dram.perBankWrBursts::9        90880                       # Per bank write bursts
system.mem_ctrls.dram.perBankWrBursts::10        90880                       # Per bank write bursts
system.mem_ctrls.dram.perBankWrBursts::11        90880                       # Per bank write bursts
system.mem_ctrls.dram.perBankWrBursts::12        90880                       # Per bank write bursts
system.mem_ctrls.dram.perBankWrBursts::13        90880                       # Per bank write bursts
system.mem_ctrls.dram.perBankWrBursts::14        90883                       # Per bank write bursts
system.mem_ctrls.dram.perBankWrBursts::15        90919                       # Per bank write bursts
system.mem_ctrls.dram.totQLat             14867848750                       # Total ticks spent queuing
system.mem_ctrls.dram.totBusLat            7440475000                       # Total ticks spent in databus transfers
system.mem_ctrls.dram.totMemAccLat        42769630000                       # Total ticks spent from burst creation until serviced by the DRAM
system.mem_ctrls.dram.avgQLat                 9991.20                       # Average queueing delay per DRAM burst
system.mem_ctrls.dram.avgBusLat               5000.00                       # Average bus latency per DRAM burst
system.mem_ctrls.dram.avgMemAccLat           28741.20                       # Average memory access latency per DRAM burst
system.mem_ctrls.dram.readRowHits             1367377                       # Number of row buffer hits during reads
system.mem_ctrls.dram.writeRowHits            1361592                       # Number of row buffer hits during writes
system.mem_ctrls.dram.readRowHitRate            91.89                       # Row buffer hit rate for reads
system.mem_ctrls.dram.writeRowHitRate           93.60                       # Row buffer hit rate for writes
system.mem_ctrls.dram.bytesPerActivate::samples       213835                       # Bytes accessed per row activation
system.mem_ctrls.dram.bytesPerActivate::mean   880.769715                       # Bytes accessed per row activation
system.mem_ctrls.dram.bytesPerActivate::gmean   766.336997                       # Bytes accessed per row activation
system.mem_ctrls.dram.bytesPerActivate::stdev   287.054956                       # Bytes accessed per row activation
system.mem_ctrls.dram.bytesPerActivate::0-127        10662      4.99%      4.99% # Bytes accessed per row activation
system.mem_ctrls.dram.bytesPerActivate::128-255         6201      2.90%      7.89% # Bytes accessed per row activation
system.mem_ctrls.dram.bytesPerActivate::256-383         4807      2.25%     10.13% # Bytes accessed per row activation
system.mem_ctrls.dram.bytesPerActivate::384-511         7202      3.37%     13.50% # Bytes accessed per row activation
system.mem_ctrls.dram.bytesPerActivate::512-639         5278      2.47%     15.97% # Bytes accessed per row activation
system.mem_ctrls.dram.bytesPerActivate::640-767         7078      3.31%     19.28% # Bytes accessed per row activation
system.mem_ctrls.dram.bytesPerActivate::768-895         5375      2.51%     21.79% # Bytes accessed per row activation
system.mem_ctrls.dram.bytesPerActivate::896-1023        14724      6.89%     28.68% # Bytes accessed per row activation
system.mem_ctrls.dram.bytesPerActivate::1024-1151       152508     71.32%    100.00% # Bytes accessed per row activation
system.mem_ctrls.dram.bytesPerActivate::total       213835                       # Bytes accessed per row activation
system.mem_ctrls.dram.bytesRead              95238080                       # Total number of bytes read from DRAM
system.mem_ctrls.dram.bytesWritten           93101504                       # Total number of bytes written to DRAM
system.mem_ctrls.dram.avgRdBW              544.906829                       # Average DRAM read bandwidth in MiBytes/s
system.mem_ctrls.dram.avgWrBW              532.682361                       # Average DRAM write bandwidth in MiBytes/s
system.mem_ctrls.dram.peakBW                 12800.00                       # Theoretical peak bandwidth in MiByte/s
system.mem_ctrls.dram.busUtil                    8.42                       # Data bus utilization in percentage
system.mem_ctrls.dram.busUtilRead                4.26                       # Data bus utilization in percentage for reads
system.mem_ctrls.dram.busUtilWrite               4.16                       # Data bus utilization in percentage for writes
system.mem_ctrls.dram.pageHitRate               92.73                       # Row buffer hit rate, read and write combined
system.mem_ctrls.dram.power_state.pwrStateResidencyTicks::UNDEFINED 174778650000                       # Cumulative time (in ticks) in various power states
system.mem_ctrls.dram.rank0.actEnergy       763772940                       # Energy for activate commands per rank (pJ)
system.mem_ctrls.dram.rank0.preEnergy       405954945                       # Energy for precharge commands per rank (pJ)
system.mem_ctrls.dram.rank0.readEnergy     5314723260                       # Energy for read commands per rank (pJ)
system.mem_ctrls.dram.rank0.writeEnergy    3798212940                       # Energy for write commands per rank (pJ)
system.mem_ctrls.dram.rank0.refreshEnergy 13796824080.000002                       # Energy for refresh commands per rank (pJ)
system.mem_ctrls.dram.rank0.actBackEnergy  39983092890                       # Energy for active background per rank (pJ)
system.mem_ctrls.dram.rank0.preBackEnergy  33445028640                       # Energy for precharge background per rank (pJ)
system.mem_ctrls.dram.rank0.actPowerDownEnergy            0                       # Energy for active power-down per rank (pJ)
system.mem_ctrls.dram.rank0.prePowerDownEnergy            0                       # Energy for precharge power-down per rank (pJ)
system.mem_ctrls.dram.rank0.selfRefreshEnergy            0                       # Energy for self refresh per rank (pJ)
system.mem_ctrls.dram.rank0.totalEnergy   97507609695                       # Total energy per rank (pJ)
system.mem_ctrls.dram.rank0.averagePower   557.891995                       # Core power per rank (mW)
system.mem_ctrls.dram.rank0.totalIdleTime            0                       # Total Idle time Per DRAM Rank
system.mem_ctrls.dram.rank0.pwrStateTime::IDLE  85563726000                       # Time in different power states
system.mem_ctrls.dram.rank0.pwrStateTime::REF   5836220000                       # Time in different power states
system.mem_ctrls.dram.rank0.pwrStateTime::SREF            0                       # Time in different power states
system.mem_ctrls.dram.rank0.pwrStateTime::PRE_PDN            0                       # Time in different power states
system.mem_ctrls.dram.rank0.pwrStateTime::ACT  83378704000                       # Time in different power states
system.mem_ctrls.dram.rank0.pwrStateTime::ACT_PDN            0                       # Time in different power states
system.mem_ctrls.dram.rank1.actEnergy       763016100                       # Energy for activate commands per rank (pJ)
system.mem_ctrls.dram.rank1.preEnergy       405548880                       # Energy for precharge commands per rank (pJ)
system.mem_ctrls.dram.rank1.readEnergy     5310275040                       # Energy for read commands per rank (pJ)
system.mem_ctrls.dram.rank1.writeEnergy    3795368040                       # Energy for write commands per rank (pJ)
system.mem_ctrls.dram.rank1.refreshEnergy 13796824080.000002                       # Energy for refresh commands per rank (pJ)
system.mem_ctrls.dram.rank1.actBackEnergy  39999983130                       # Energy for active background per rank (pJ)
system.mem_ctrls.dram.rank1.preBackEnergy  33430805280                       # Energy for precharge background per rank (pJ)
system.mem_ctrls.dram.rank1.actPowerDownEnergy            0                       # Energy for active power-down per rank (pJ)
system.mem_ctrls.dram.rank1.prePowerDownEnergy            0                       # Energy for precharge power-down per rank (pJ)
system.mem_ctrls.dram.rank1.selfRefreshEnergy            0                       # Energy for self refresh per rank (pJ)
system.mem_ctrls.dram.rank1.totalEnergy   97501820550                       # Total energy per rank (pJ)
system.mem_ctrls.dram.rank1.averagePower   557.858872                       # Core power per rank (mW)
system.mem_ctrls.dram.rank1.totalIdleTime            0                       # Total Idle time Per DRAM Rank
system.mem_ctrls.dram.rank1.pwrStateTime::IDLE  85527545250                       # Time in different power states
system.mem_ctrls.dram.rank1.pwrStateTime::REF   5836220000                       # Time in different power states
system.mem_ctrls.dram.rank1.pwrStateTime::SREF            0                       # Time in different power states
system.mem_ctrls.dram.rank1.pwrStateTime::PRE_PDN            0                       # Time in different power states
system.mem_ctrls.dram.rank1.pwrStateTime::ACT  83414884750                       # Time in different power states
system.mem_ctrls.dram.rank1.pwrStateTime::ACT_PDN            0                       # Time in different power states
system.mem_ctrls.power_state.pwrStateResidencyTicks::UNDEFINED 174778650000                       # Cumulative time (in ticks) in various power states
system.membus.trans_dist::ReadResp                599                       # Transaction distribution
system.membus.trans_dist::WritebackDirty      1454742                       # Transaction distribution
system.membus.trans_dist::CleanEvict              252                       # Transaction distribution
system.membus.trans_dist::ReadExReq           1487496                       # Transaction distribution
system.membus.trans_dist::ReadExResp          1487496                       # Transaction distribution
system.membus.trans_dist::ReadSharedReq           599                       # Transaction distribution
system.membus.pkt_count_system.l2.mem_side_port::system.mem_ctrls.port      4431184                       # Packet count per connected requestor and responder (bytes)
system.membus.pkt_count::total                4431184                       # Packet count per connected requestor and responder (bytes)
system.membus.pkt_size_system.l2.mem_side_port::system.mem_ctrls.port    188341568                       # Cumulative packet size per connected requestor and responder (bytes)
system.membus.pkt_size::total               188341568                       # Cumulative packet size per connected requestor and responder (bytes)
system.membus.snoops                                0                       # Total snoops (count)
system.membus.snoopTraffic                          0                       # Total snoop traffic (bytes)
system.membus.snoop_fanout::samples           1488095                       # Request fanout histogram
system.membus.snoop_fanout::mean                    0                       # Request fanout histogram
system.membus.snoop_fanout::stdev                   0                       # Request fanout histogram
system.membus.snoop_fanout::underflows              0      0.00%      0.00% # Request fanout histogram
system.membus.snoop_fanout::0                 1488095    100.00%    100.00% # Request fanout histogram
system.membus.snoop_fanout::1                       0      0.00%    100.00% # Request fanout histogram
system.membus.snoop_fanout::overflows               0      0.00%    100.00% # Request fanout histogram
system.membus.snoop_fanout::min_value               0                       # Request fanout histogram
system.membus.snoop_fanout::max_value               0                       # Request fanout histogram
system.membus.snoop_fanout::total             1488095                       # Request fanout histogram
system.membus.power_state.pwrStateResidencyTicks::UNDEFINED 174778650000                       # Cumulative time (in ticks) in various power states
system.membus.reqLayer0.occupancy          9352474000                       # Layer occupancy (ticks)
system.membus.reqLayer0.utilization               5.4                       # Layer utilization (%)
system.membus.respLayer1.occupancy         7840182500                       # Layer occupancy (ticks)
system.membus.respLayer1.utilization              4.5                       # Layer utilization (%)
system.tol2bus.trans_dist::ReadResp               710                       # Transaction distribution
system.tol2bus.trans_dist::WritebackDirty      2941231                       # Transaction distribution
system.tol2bus.trans_dist::WritebackClean          260                       # Transaction distribution
system.tol2bus.trans_dist::CleanEvict             687                       # Transaction distribution
system.tol2bus.trans_dist::ReadExReq          1487496                       # Transaction distribution
system.tol2bus.trans_dist::ReadExResp         1487496                       # Transaction distribution
system.tol2bus.trans_dist::ReadCleanReq           591                       # Transaction distribution
system.tol2bus.trans_dist::ReadSharedReq          119                       # Transaction distribution
system.tol2bus.pkt_count_system.cpu.icache.mem_side_port::system.l2.cpu_side_port         1442                       # Packet count per connected requestor and responder (bytes)
system.tol2bus.pkt_count_system.cpu.dcache.mem_side_port::system.l2.cpu_side_port      4461821                       # Packet count per connected requestor and responder (bytes)
system.tol2bus.pkt_count::total               4463263                       # Packet count per connected requestor and responder (bytes)
system.tol2bus.pkt_size_system.cpu.icache.mem_side_port::system.l2.cpu_side_port        54464                       # Cumulative packet size per connected requestor and responder (bytes)
system.tol2bus.pkt_size_system.cpu.dcache.mem_side_port::system.l2.cpu_side_port    190342656                       # Cumulative packet size per connected requestor and responder (bytes)
system.tol2bus.pkt_size::total              190397120                       # Cumulative packet size per connected requestor and responder (bytes)
system.tol2bus.snoops                         1455327                       # Total snoops (count)
system.tol2bus.snoopTraffic                  93103488                       # Total snoop traffic (bytes)
system.tol2bus.snoop_fanout::samples          2943533                       # Request fanout histogram
system.tol2bus.snoop_fanout::mean            0.000126                       # Request fanout histogram
system.tol2bus.snoop_fanout::stdev           0.011256                       # Request fanout histogram
system.tol2bus.snoop_fanout::underflows             0      0.00%      0.00% # Request fanout histogram
system.tol2bus.snoop_fanout::0                2943163     99.99%     99.99% # Request fanout histogram
system.tol2bus.snoop_fanout::1                    369      0.01%    100.00% # Request fanout histogram
system.tol2bus.snoop_fanout::2                      1      0.00%    100.00% # Request fanout histogram
system.tol2bus.snoop_fanout::overflows              0      0.00%    100.00% # Request fanout histogram
system.tol2bus.snoop_fanout::min_value              0                       # Request fanout histogram
system.tol2bus.snoop_fanout::max_value              2                       # Request fanout histogram
system.tol2bus.snoop_fanout::total            2943533                       # Request fanout histogram
system.tol2bus.power_state.pwrStateResidencyTicks::UNDEFINED 174778650000                       # Cumulative time (in ticks) in various power states
system.tol2bus.reqLayer0.occupancy         2974277500                       # Layer occupancy (ticks)
system.tol2bus.reqLayer0.utilization              1.7                       # Layer utilization (%)
system.tol2bus.respLayer0.occupancy            887498                       # Layer occupancy (ticks)
system.tol2bus.respLayer0.utilization             0.0                       # Layer utilization (%)
system.tol2bus.respLayer1.occupancy        2231422999                       # Layer occupancy (ticks)
system.tol2bus.respLayer1.utilization             1.3                       # Layer utilization (%)
system.voltage_domain.voltage                       1                       # Voltage in Volts

---------- End Simulation Statistics   ----------
