
---------- Begin Simulation Statistics ----------
final_tick                                59399803500                       # Number of ticks from beginning of simulation (restored from checkpoints and never reset)
host_inst_rate                                 295267                       # Simulator instruction rate (inst/s)
host_mem_usage                                 727164                       # Number of bytes of host memory used
host_op_rate                                   298581                       # Simulator op (including micro ops) rate (op/s)
host_seconds                                   338.68                       # Real time elapsed on the host
host_tick_rate                              175387922                       # Simulator tick rate (ticks/s)
sim_freq                                 1000000000000                       # Frequency of simulated ticks
sim_insts                                   100000000                       # Number of instructions simulated
sim_ops                                     101122355                       # Number of ops (including micro ops) simulated
sim_seconds                                  0.059400                       # Number of seconds simulated
sim_ticks                                 59399803500                       # Number of ticks simulated
system.cpu.committedInsts                   100000000                       # Number of instructions committed
system.cpu.committedOps                     101122355                       # Number of ops (including micro ops) committed
system.cpu.cpi                               1.187996                       # CPI: cycles per instruction
system.cpu.discardedOps                        962388                       # Number of ops (including micro ops) which were discarded before commit
system.cpu.idleCycles                         3003405                       # Total number of cycles that the object has spent stopped
system.cpu.ipc                               0.841754                       # IPC: instructions per cycle
system.cpu.numCycles                        118799607                       # number of cpu cycles simulated
system.cpu.numFetchSuspends                         0                       # Number of times Execute suspended instruction fetching
system.cpu.numWorkItemsCompleted                    0                       # number of work items this cpu completed
system.cpu.numWorkItemsStarted                      0                       # number of work items this cpu started
system.cpu.op_class_0::No_OpClass                   0      0.00%      0.00% # Class of committed instruction
system.cpu.op_class_0::IntAlu                55111255     54.50%     54.50% # Class of committed instruction
system.cpu.op_class_0::IntMult                 167845      0.17%     54.67% # Class of committed instruction
system.cpu.op_class_0::IntDiv                       0      0.00%     54.67% # Class of committed instruction
system.cpu.op_class_0::FloatAdd                     0      0.00%     54.67% # Class of committed instruction
system.cpu.op_class_0::FloatCmp                     0      0.00%     54.67% # Class of committed instruction
system.cpu.op_class_0::FloatCvt                     0      0.00%     54.67% # Class of committed instruction
system.cpu.op_class_0::FloatMult                    0      0.00%     54.67% # Class of committed instruction
system.cpu.op_class_0::FloatMultAcc                 0      0.00%     54.67% # Class of committed instruction
system.cpu.op_class_0::FloatDiv                     0      0.00%     54.67% # Class of committed instruction
system.cpu.op_class_0::FloatMisc                    0      0.00%     54.67% # Class of committed instruction
system.cpu.op_class_0::FloatSqrt                    0      0.00%     54.67% # Class of committed instruction
system.cpu.op_class_0::SimdAdd                    380      0.00%     54.67% # Class of committed instruction
system.cpu.op_class_0::SimdAddAcc                   0      0.00%     54.67% # Class of committed instruction
system.cpu.op_class_0::SimdAlu                    470      0.00%     54.67% # Class of committed instruction
system.cpu.op_class_0::SimdCmp                    382      0.00%     54.67% # Class of committed instruction
system.cpu.op_class_0::SimdCvt                      0      0.00%     54.67% # Class of committed instruction
system.cpu.op_class_0::SimdMisc                    53      0.00%     54.67% # Class of committed instruction
system.cpu.op_class_0::SimdMult                     0      0.00%     54.67% # Class of committed instruction
system.cpu.op_class_0::SimdMultAcc                  0      0.00%     54.67% # Class of committed instruction
system.cpu.op_class_0::SimdShift                    0      0.00%     54.67% # Class of committed instruction
system.cpu.op_class_0::SimdShiftAcc                 0      0.00%     54.67% # Class of committed instruction
system.cpu.op_class_0::SimdDiv                      0      0.00%     54.67% # Class of committed instruction
system.cpu.op_class_0::SimdSqrt                     0      0.00%     54.67% # Class of committed instruction
system.cpu.op_class_0::SimdFloatAdd            282752      0.28%     54.95% # Class of committed instruction
system.cpu.op_class_0::SimdFloatAlu                 0      0.00%     54.95% # Class of committed instruction
system.cpu.op_class_0::SimdFloatCmp            266991      0.26%     55.21% # Class of committed instruction
system.cpu.op_class_0::SimdFloatCvt            163440      0.16%     55.37% # Class of committed instruction
system.cpu.op_class_0::SimdFloatDiv             54308      0.05%     55.43% # Class of committed instruction
system.cpu.op_class_0::SimdFloatMisc           505318      0.50%     55.93% # Class of committed instruction
system.cpu.op_class_0::SimdFloatMult            36718      0.04%     55.96% # Class of committed instruction
system.cpu.op_class_0::SimdFloatMultAcc         10949      0.01%     55.97% # Class of committed instruction
system.cpu.op_class_0::SimdFloatSqrt                0      0.00%     55.97% # Class of committed instruction
system.cpu.op_class_0::SimdReduceAdd                0      0.00%     55.97% # Class of committed instruction
system.cpu.op_class_0::SimdReduceAlu                0      0.00%     55.97% # Class of committed instruction
system.cpu.op_class_0::SimdReduceCmp                0      0.00%     55.97% # Class of committed instruction
system.cpu.op_class_0::SimdFloatReduceAdd            0      0.00%     55.97% # Class of committed instruction
system.cpu.op_class_0::SimdFloatReduceCmp            0      0.00%     55.97% # Class of committed instruction
system.cpu.op_class_0::SimdAes                      0      0.00%     55.97% # Class of committed instruction
system.cpu.op_class_0::SimdAesMix                   0      0.00%     55.97% # Class of committed instruction
system.cpu.op_class_0::SimdSha1Hash                 0      0.00%     55.97% # Class of committed instruction
system.cpu.op_class_0::SimdSha1Hash2                0      0.00%     55.97% # Class of committed instruction
system.cpu.op_class_0::SimdSha256Hash               0      0.00%     55.97% # Class of committed instruction
system.cpu.op_class_0::SimdSha256Hash2              0      0.00%     55.97% # Class of committed instruction
system.cpu.op_class_0::SimdShaSigma2                0      0.00%     55.97% # Class of committed instruction
system.cpu.op_class_0::SimdShaSigma3                0      0.00%     55.97% # Class of committed instruction
system.cpu.op_class_0::SimdPredAlu                  0      0.00%     55.97% # Class of committed instruction
system.cpu.op_class_0::MemRead               38138347     37.72%     93.69% # Class of committed instruction
system.cpu.op_class_0::MemWrite               6383147      6.31%    100.00% # Class of committed instruction
system.cpu.op_class_0::FloatMemRead                 0      0.00%    100.00% # Class of committed instruction
system.cpu.op_class_0::FloatMemWrite                0      0.00%    100.00% # Class of committed instruction
system.cpu.op_class_0::IprAccess                    0      0.00%    100.00% # Class of committed instruction
system.cpu.op_class_0::InstPrefetch                 0      0.00%    100.00% # Class of committed instruction
system.cpu.op_class_0::total                101122355                       # Class of committed instruction
system.cpu.tickCycles                       115796202                       # Number of cycles that the object actually ticked
system.cpu.workload.numSyscalls                    33                       # Number of system calls
system.membus.snoop_filter.hit_multi_requests            0                       # Number of requests hitting in the snoop filter with multiple (>1) holders of the requested data.
system.membus.snoop_filter.hit_multi_snoops            0                       # Number of snoops hitting in the snoop filter with multiple (>1) holders of the requested data.
system.membus.snoop_filter.hit_single_requests            0                       # Number of requests hitting in the snoop filter with a single holder of the requested data.
system.membus.snoop_filter.hit_single_snoops            0                       # Number of snoops hitting in the snoop filter with a single holder of the requested data.
system.membus.snoop_filter.tot_requests          5781                       # Total number of requests made to the snoop filter.
system.membus.snoop_filter.tot_snoops               0                       # Total number of snoops made to the snoop filter.
system.tol2bus.snoop_filter.hit_multi_requests          749                       # Number of requests hitting in the snoop filter with multiple (>1) holders of the requested data.
system.tol2bus.snoop_filter.hit_multi_snoops            0                       # Number of snoops hitting in the snoop filter with multiple (>1) holders of the requested data.
system.tol2bus.snoop_filter.hit_single_requests        68949                       # Number of requests hitting in the snoop filter with a single holder of the requested data.
system.tol2bus.snoop_filter.hit_single_snoops            0                       # Number of snoops hitting in the snoop filter with a single holder of the requested data.
system.tol2bus.snoop_filter.tot_requests       139404                       # Total number of requests made to the snoop filter.
system.tol2bus.snoop_filter.tot_snoops              0                       # Total number of snoops made to the snoop filter.
system.clk_domain.clock                          1000                       # Clock period in ticks
system.cpu.branchPred.lookups                 6512096                       # Number of BP lookups
system.cpu.branchPred.condPredicted           5102273                       # Number of conditional branches predicted
system.cpu.branchPred.condIncorrect            345875                       # Number of conditional branches incorrect
system.cpu.branchPred.BTBLookups              4089441                       # Number of BTB lookups
system.cpu.branchPred.BTBHits                 4083435                       # Number of BTB hits
system.cpu.branchPred.BTBHitPct             99.853134                       # BTB Hit Percentage
system.cpu.branchPred.RASUsed                  313292                       # Number of times the RAS was used to get a target.
system.cpu.branchPred.RASIncorrect                  4                       # Number of incorrect RAS predictions.
system.cpu.branchPred.indirectLookups          674710                       # Number of indirect predictor lookups.
system.cpu.branchPred.indirectHits             102862                       # Number of indirect target hits.
system.cpu.branchPred.indirectMisses           571848                       # Number of indirect misses.
system.cpu.branchPred.indirectMispredicted        34897                       # Number of mispredicted indirect branches.
system.cpu.dcache.demand_hits::.cpu.data     43783806                       # number of demand (read+write) hits
system.cpu.dcache.demand_hits::total         43783806                       # number of demand (read+write) hits
system.cpu.dcache.overall_hits::.cpu.data     43792354                       # number of overall hits
system.cpu.dcache.overall_hits::total        43792354                       # number of overall hits
system.cpu.dcache.demand_misses::.cpu.data        74056                       # number of demand (read+write) misses
system.cpu.dcache.demand_misses::total          74056                       # number of demand (read+write) misses
system.cpu.dcache.overall_misses::.cpu.data        74204                       # number of overall misses
system.cpu.dcache.overall_misses::total         74204                       # number of overall misses
system.cpu.dcache.demand_miss_latency::.cpu.data   1436512500                       # number of demand (read+write) miss cycles
system.cpu.dcache.demand_miss_latency::total   1436512500                       # number of demand (read+write) miss cycles
system.cpu.dcache.overall_miss_latency::.cpu.data   1436512500                       # number of overall miss cycles
system.cpu.dcache.overall_miss_latency::total   1436512500                       # number of overall miss cycles
system.cpu.dcache.demand_accesses::.cpu.data     43857862                       # number of demand (read+write) accesses
system.cpu.dcache.demand_accesses::total     43857862                       # number of demand (read+write) accesses
system.cpu.dcache.overall_accesses::.cpu.data     43866558                       # number of overall (read+write) accesses
system.cpu.dcache.overall_accesses::total     43866558                       # number of overall (read+write) accesses
system.cpu.dcache.demand_miss_rate::.cpu.data     0.001689                       # miss rate for demand accesses
system.cpu.dcache.demand_miss_rate::total     0.001689                       # miss rate for demand accesses
system.cpu.dcache.overall_miss_rate::.cpu.data     0.001692                       # miss rate for overall accesses
system.cpu.dcache.overall_miss_rate::total     0.001692                       # miss rate for overall accesses
system.cpu.dcache.demand_avg_miss_latency::.cpu.data 19397.651777                       # average overall miss latency
system.cpu.dcache.demand_avg_miss_latency::total 19397.651777                       # average overall miss latency
system.cpu.dcache.overall_avg_miss_latency::.cpu.data 19358.963129                       # average overall miss latency
system.cpu.dcache.overall_avg_miss_latency::total 19358.963129                       # average overall miss latency
system.cpu.dcache.blocked_cycles::no_mshrs          332                       # number of cycles access was blocked
system.cpu.dcache.blocked_cycles::no_targets            0                       # number of cycles access was blocked
system.cpu.dcache.blocked::no_mshrs                 3                       # number of cycles access was blocked
system.cpu.dcache.blocked::no_targets               0                       # number of cycles access was blocked
system.cpu.dcache.avg_blocked_cycles::no_mshrs   110.666667                       # average number of cycles each access was blocked
system.cpu.dcache.avg_blocked_cycles::no_targets          nan                       # average number of cycles each access was blocked
system.cpu.dcache.writebacks::.writebacks        65769                       # number of writebacks
system.cpu.dcache.writebacks::total             65769                       # number of writebacks
system.cpu.dcache.demand_mshr_hits::.cpu.data         5286                       # number of demand (read+write) MSHR hits
system.cpu.dcache.demand_mshr_hits::total         5286                       # number of demand (read+write) MSHR hits
system.cpu.dcache.overall_mshr_hits::.cpu.data         5286                       # number of overall MSHR hits
system.cpu.dcache.overall_mshr_hits::total         5286                       # number of overall MSHR hits
system.cpu.dcache.demand_mshr_misses::.cpu.data        68770                       # number of demand (read+write) MSHR misses
system.cpu.dcache.demand_mshr_misses::total        68770                       # number of demand (read+write) MSHR misses
system.cpu.dcache.overall_mshr_misses::.cpu.data        68906                       # number of overall MSHR misses
system.cpu.dcache.overall_mshr_misses::total        68906                       # number of overall MSHR misses
system.cpu.dcache.demand_mshr_miss_latency::.cpu.data   1141764000                       # number of demand (read+write) MSHR miss cycles
system.cpu.dcache.demand_mshr_miss_latency::total   1141764000                       # number of demand (read+write) MSHR miss cycles
system.cpu.dcache.overall_mshr_miss_latency::.cpu.data   1149693500                       # number of overall MSHR miss cycles
system.cpu.dcache.overall_mshr_miss_latency::total   1149693500                       # number of overall MSHR miss cycles
system.cpu.dcache.demand_mshr_miss_rate::.cpu.data     0.001568                       # mshr miss rate for demand accesses
system.cpu.dcache.demand_mshr_miss_rate::total     0.001568                       # mshr miss rate for demand accesses
system.cpu.dcache.overall_mshr_miss_rate::.cpu.data     0.001571                       # mshr miss rate for overall accesses
system.cpu.dcache.overall_mshr_miss_rate::total     0.001571                       # mshr miss rate for overall accesses
system.cpu.dcache.demand_avg_mshr_miss_latency::.cpu.data 16602.646503                       # average overall mshr miss latency
system.cpu.dcache.demand_avg_mshr_miss_latency::total 16602.646503                       # average overall mshr miss latency
system.cpu.dcache.overall_avg_mshr_miss_latency::.cpu.data 16684.954866                       # average overall mshr miss latency
system.cpu.dcache.overall_avg_mshr_miss_latency::total 16684.954866                       # average overall mshr miss latency
system.cpu.dcache.replacements                  67883                       # number of replacements
system.cpu.dcache.ReadReq_hits::.cpu.data     37517133                       # number of ReadReq hits
system.cpu.dcache.ReadReq_hits::total        37517133                       # number of ReadReq hits
system.cpu.dcache.ReadReq_misses::.cpu.data        15838                       # number of ReadReq misses
system.cpu.dcache.ReadReq_misses::total         15838                       # number of ReadReq misses
system.cpu.dcache.ReadReq_miss_latency::.cpu.data    278154000                       # number of ReadReq miss cycles
system.cpu.dcache.ReadReq_miss_latency::total    278154000                       # number of ReadReq miss cycles
system.cpu.dcache.ReadReq_accesses::.cpu.data     37532971                       # number of ReadReq accesses(hits+misses)
system.cpu.dcache.ReadReq_accesses::total     37532971                       # number of ReadReq accesses(hits+misses)
system.cpu.dcache.ReadReq_miss_rate::.cpu.data     0.000422                       # miss rate for ReadReq accesses
system.cpu.dcache.ReadReq_miss_rate::total     0.000422                       # miss rate for ReadReq accesses
system.cpu.dcache.ReadReq_avg_miss_latency::.cpu.data 17562.444753                       # average ReadReq miss latency
system.cpu.dcache.ReadReq_avg_miss_latency::total 17562.444753                       # average ReadReq miss latency
system.cpu.dcache.ReadReq_mshr_hits::.cpu.data          391                       # number of ReadReq MSHR hits
system.cpu.dcache.ReadReq_mshr_hits::total          391                       # number of ReadReq MSHR hits
system.cpu.dcache.ReadReq_mshr_misses::.cpu.data        15447                       # number of ReadReq MSHR misses
system.cpu.dcache.ReadReq_mshr_misses::total        15447                       # number of ReadReq MSHR misses
system.cpu.dcache.ReadReq_mshr_miss_latency::.cpu.data    251947500                       # number of ReadReq MSHR miss cycles
system.cpu.dcache.ReadReq_mshr_miss_latency::total    251947500                       # number of ReadReq MSHR miss cycles
system.cpu.dcache.ReadReq_mshr_miss_rate::.cpu.data     0.000412                       # mshr miss rate for ReadReq accesses
system.cpu.dcache.ReadReq_mshr_miss_rate::total     0.000412                       # mshr miss rate for ReadReq accesses
system.cpu.dcache.ReadReq_avg_mshr_miss_latency::.cpu.data 16310.448631                       # average ReadReq mshr miss latency
system.cpu.dcache.ReadReq_avg_mshr_miss_latency::total 16310.448631                       # average ReadReq mshr miss latency
system.cpu.dcache.WriteReq_hits::.cpu.data      6266673                       # number of WriteReq hits
system.cpu.dcache.WriteReq_hits::total        6266673                       # number of WriteReq hits
system.cpu.dcache.WriteReq_misses::.cpu.data        58218                       # number of WriteReq misses
system.cpu.dcache.WriteReq_misses::total        58218                       # number of WriteReq misses
system.cpu.dcache.WriteReq_miss_latency::.cpu.data   1158358500                       # number of WriteReq miss cycles
system.cpu.dcache.WriteReq_miss_latency::total   1158358500                       # number of WriteReq miss cycles
system.cpu.dcache.WriteReq_accesses::.cpu.data      6324891                       # number of WriteReq accesses(hits+misses)
system.cpu.dcache.WriteReq_accesses::total      6324891                       # number of WriteReq accesses(hits+misses)
system.cpu.dcache.WriteReq_miss_rate::.cpu.data     0.009205                       # miss rate for WriteReq accesses
system.cpu.dcache.WriteReq_miss_rate::total     0.009205                       # miss rate for WriteReq accesses
system.cpu.dcache.WriteReq_avg_miss_latency::.cpu.data 19896.913326                       # average WriteReq miss latency
system.cpu.dcache.WriteReq_avg_miss_latency::total 19896.913326                       # average WriteReq miss latency
system.cpu.dcache.WriteReq_mshr_hits::.cpu.data         4895                       # number of WriteReq MSHR hits
system.cpu.dcache.WriteReq_mshr_hits::total         4895                       # number of WriteReq MSHR hits
system.cpu.dcache.WriteReq_mshr_misses::.cpu.data        53323                       # number of WriteReq MSHR misses
system.cpu.dcache.WriteReq_mshr_misses::total        53323                       # number of WriteReq MSHR misses
system.cpu.dcache.WriteReq_mshr_miss_latency::.cpu.data    889816500                       # number of WriteReq MSHR miss cycles
system.cpu.dcache.WriteReq_mshr_miss_latency::total    889816500                       # number of WriteReq MSHR miss cycles
system.cpu.dcache.WriteReq_mshr_miss_rate::.cpu.data     0.008431                       # mshr miss rate for WriteReq accesses
system.cpu.dcache.WriteReq_mshr_miss_rate::total     0.008431                       # mshr miss rate for WriteReq accesses
system.cpu.dcache.WriteReq_avg_mshr_miss_latency::.cpu.data 16687.292538                       # average WriteReq mshr miss latency
system.cpu.dcache.WriteReq_avg_mshr_miss_latency::total 16687.292538                       # average WriteReq mshr miss latency
system.cpu.dcache.SoftPFReq_hits::.cpu.data         8548                       # number of SoftPFReq hits
system.cpu.dcache.SoftPFReq_hits::total          8548                       # number of SoftPFReq hits
system.cpu.dcache.SoftPFReq_misses::.cpu.data          148                       # number of SoftPFReq misses
system.cpu.dcache.SoftPFReq_misses::total          148                       # number of SoftPFReq misses
system.cpu.dcache.SoftPFReq_accesses::.cpu.data         8696                       # number of SoftPFReq accesses(hits+misses)
system.cpu.dcache.SoftPFReq_accesses::total         8696                       # number of SoftPFReq accesses(hits+misses)
system.cpu.dcache.SoftPFReq_miss_rate::.cpu.data     0.017019                       # miss rate for SoftPFReq accesses
system.cpu.dcache.SoftPFReq_miss_rate::total     0.017019                       # miss rate for SoftPFReq accesses
system.cpu.dcache.SoftPFReq_mshr_misses::.cpu.data          136                       # number of SoftPFReq MSHR misses
system.cpu.dcache.SoftPFReq_mshr_misses::total          136                       # number of SoftPFReq MSHR misses
system.cpu.dcache.SoftPFReq_mshr_miss_latency::.cpu.data      7929500                       # number of SoftPFReq MSHR miss cycles
system.cpu.dcache.SoftPFReq_mshr_miss_latency::total      7929500                       # number of SoftPFReq MSHR miss cycles
system.cpu.dcache.SoftPFReq_mshr_miss_rate::.cpu.data     0.015639                       # mshr miss rate for SoftPFReq accesses
system.cpu.dcache.SoftPFReq_mshr_miss_rate::total     0.015639                       # mshr miss rate for SoftPFReq accesses
system.cpu.dcache.SoftPFReq_avg_mshr_miss_latency::.cpu.data 58305.147059                       # average SoftPFReq mshr miss latency
system.cpu.dcache.SoftPFReq_avg_mshr_miss_latency::total 58305.147059                       # average SoftPFReq mshr miss latency
system.cpu.dcache.LoadLockedReq_hits::.cpu.data          165                       # number of LoadLockedReq hits
system.cpu.dcache.LoadLockedReq_hits::total          165                       # number of LoadLockedReq hits
system.cpu.dcache.LoadLockedReq_misses::.cpu.data            1                       # number of LoadLockedReq misses
system.cpu.dcache.LoadLockedReq_misses::total            1                       # number of LoadLockedReq misses
system.cpu.dcache.LoadLockedReq_miss_latency::.cpu.data        72000                       # number of LoadLockedReq miss cycles
system.cpu.dcache.LoadLockedReq_miss_latency::total        72000                       # number of LoadLockedReq miss cycles
system.cpu.dcache.LoadLockedReq_accesses::.cpu.data          166                       # number of LoadLockedReq accesses(hits+misses)
system.cpu.dcache.LoadLockedReq_accesses::total          166                       # number of LoadLockedReq accesses(hits+misses)
system.cpu.dcache.LoadLockedReq_miss_rate::.cpu.data     0.006024                       # miss rate for LoadLockedReq accesses
system.cpu.dcache.LoadLockedReq_miss_rate::total     0.006024                       # miss rate for LoadLockedReq accesses
system.cpu.dcache.LoadLockedReq_avg_miss_latency::.cpu.data        72000                       # average LoadLockedReq miss latency
system.cpu.dcache.LoadLockedReq_avg_miss_latency::total        72000                       # average LoadLockedReq miss latency
system.cpu.dcache.LoadLockedReq_mshr_misses::.cpu.data            1                       # number of LoadLockedReq MSHR misses
system.cpu.dcache.LoadLockedReq_mshr_misses::total            1                       # number of LoadLockedReq MSHR misses
system.cpu.dcache.LoadLockedReq_mshr_miss_latency::.cpu.data        71000                       # number of LoadLockedReq MSHR miss cycles
system.cpu.dcache.LoadLockedReq_mshr_miss_latency::total        71000                       # number of LoadLockedReq MSHR miss cycles
system.cpu.dcache.LoadLockedReq_mshr_miss_rate::.cpu.data     0.006024                       # mshr miss rate for LoadLockedReq accesses
system.cpu.dcache.LoadLockedReq_mshr_miss_rate::total     0.006024                       # mshr miss rate for LoadLockedReq accesses
system.cpu.dcache.LoadLockedReq_avg_mshr_miss_latency::.cpu.data        71000                       # average LoadLockedReq mshr miss latency
system.cpu.dcache.LoadLockedReq_avg_mshr_miss_latency::total        71000                       # average LoadLockedReq mshr miss latency
system.cpu.dcache.StoreCondReq_hits::.cpu.data          166                       # number of StoreCondReq hits
system.cpu.dcache.StoreCondReq_hits::total          166                       # number of StoreCondReq hits
system.cpu.dcache.StoreCondReq_accesses::.cpu.data          166                       # number of StoreCondReq accesses(hits+misses)
system.cpu.dcache.StoreCondReq_accesses::total          166                       # number of StoreCondReq accesses(hits+misses)
system.cpu.dcache.power_state.pwrStateResidencyTicks::UNDEFINED  59399803500                       # Cumulative time (in ticks) in various power states
system.cpu.dcache.tags.tagsinuse          1015.378004                       # Cycle average of tags in use
system.cpu.dcache.tags.total_refs            43861592                       # Total number of references to valid blocks.
system.cpu.dcache.tags.sampled_refs             68907                       # Sample count of references to valid blocks.
system.cpu.dcache.tags.avg_refs            636.533182                       # Average number of references to valid blocks.
system.cpu.dcache.tags.warmup_cycle            176500                       # Cycle when the warmup percentage was hit.
system.cpu.dcache.tags.occ_blocks::.cpu.data  1015.378004                       # Average occupied blocks per requestor
system.cpu.dcache.tags.occ_percent::.cpu.data     0.991580                       # Average percentage of cache occupancy
system.cpu.dcache.tags.occ_percent::total     0.991580                       # Average percentage of cache occupancy
system.cpu.dcache.tags.occ_task_id_blocks::1024         1024                       # Occupied blocks per task id
system.cpu.dcache.tags.age_task_id_blocks_1024::0           15                       # Occupied blocks per task id
system.cpu.dcache.tags.age_task_id_blocks_1024::1          146                       # Occupied blocks per task id
system.cpu.dcache.tags.age_task_id_blocks_1024::2          588                       # Occupied blocks per task id
system.cpu.dcache.tags.age_task_id_blocks_1024::3          250                       # Occupied blocks per task id
system.cpu.dcache.tags.age_task_id_blocks_1024::4           25                       # Occupied blocks per task id
system.cpu.dcache.tags.occ_task_id_percent::1024            1                       # Percentage of cache occupancy per task id
system.cpu.dcache.tags.tag_accesses          87802687                       # Number of tag accesses
system.cpu.dcache.tags.data_accesses         87802687                       # Number of data accesses
system.cpu.dcache.tags.power_state.pwrStateResidencyTicks::UNDEFINED  59399803500                       # Cumulative time (in ticks) in various power states
system.cpu.dtb.instHits                             0                       # ITB inst hits
system.cpu.dtb.instMisses                           0                       # ITB inst misses
system.cpu.dtb.readHits                             0                       # DTB read hits
system.cpu.dtb.readMisses                           0                       # DTB read misses
system.cpu.dtb.writeHits                            0                       # DTB write hits
system.cpu.dtb.writeMisses                          0                       # DTB write misses
system.cpu.dtb.inserts                              0                       # Number of times an entry is inserted into the TLB
system.cpu.dtb.flushTlb                             0                       # Number of times complete TLB was flushed
system.cpu.dtb.flushTlbMva                          0                       # Number of times TLB was flushed by MVA
system.cpu.dtb.flushTlbMvaAsid                      0                       # Number of times TLB was flushed by MVA & ASID
system.cpu.dtb.flushTlbAsid                         0                       # Number of times TLB was flushed by ASID
system.cpu.dtb.flushedEntries                       0                       # Number of entries that have been flushed from TLB
system.cpu.dtb.alignFaults                          0                       # Number of TLB faults due to alignment restrictions
system.cpu.dtb.prefetchFaults                       0                       # Number of TLB faults due to prefetch
system.cpu.dtb.domainFaults                         0                       # Number of TLB faults due to domain restrictions
system.cpu.dtb.permsFaults                          0                       # Number of TLB faults due to permissions restrictions
system.cpu.dtb.readAccesses                         0                       # DTB read accesses
system.cpu.dtb.writeAccesses                        0                       # DTB write accesses
system.cpu.dtb.instAccesses                         0                       # ITB inst accesses
system.cpu.dtb.hits                                 0                       # Total TLB (inst and data) hits
system.cpu.dtb.misses                               0                       # Total TLB (inst and data) misses
system.cpu.dtb.accesses                             0                       # Total TLB (inst and data) accesses
system.cpu.dtb.stage2_mmu.stage2_tlb.instHits            0                       # ITB inst hits
system.cpu.dtb.stage2_mmu.stage2_tlb.instMisses            0                       # ITB inst misses
system.cpu.dtb.stage2_mmu.stage2_tlb.readHits            0                       # DTB read hits
system.cpu.dtb.stage2_mmu.stage2_tlb.readMisses            0                       # DTB read misses
system.cpu.dtb.stage2_mmu.stage2_tlb.writeHits            0                       # DTB write hits
system.cpu.dtb.stage2_mmu.stage2_tlb.writeMisses            0                       # DTB write misses
system.cpu.dtb.stage2_mmu.stage2_tlb.inserts            0                       # Number of times an entry is inserted into the TLB
system.cpu.dtb.stage2_mmu.stage2_tlb.flushTlb            0                       # Number of times complete TLB was flushed
system.cpu.dtb.stage2_mmu.stage2_tlb.flushTlbMva            0                       # Number of times TLB was flushed by MVA
system.cpu.dtb.stage2_mmu.stage2_tlb.flushTlbMvaAsid            0                       # Number of times TLB was flushed by MVA & ASID
system.cpu.dtb.stage2_mmu.stage2_tlb.flushTlbAsid            0                       # Number of times TLB was flushed by ASID
system.cpu.dtb.stage2_mmu.stage2_tlb.flushedEntries            0                       # Number of entries that have been flushed from TLB
system.cpu.dtb.stage2_mmu.stage2_tlb.alignFaults            0                       # Number of TLB faults due to alignment restrictions
system.cpu.dtb.stage2_mmu.stage2_tlb.prefetchFaults            0                       # Number of TLB faults due to prefetch
system.cpu.dtb.stage2_mmu.stage2_tlb.domainFaults            0                       # Number of TLB faults due to domain restrictions
system.cpu.dtb.stage2_mmu.stage2_tlb.permsFaults            0                       # Number of TLB faults due to permissions restrictions
system.cpu.dtb.stage2_mmu.stage2_tlb.readAccesses            0                       # DTB read accesses
system.cpu.dtb.stage2_mmu.stage2_tlb.writeAccesses            0                       # DTB write accesses
system.cpu.dtb.stage2_mmu.stage2_tlb.instAccesses            0                       # ITB inst accesses
system.cpu.dtb.stage2_mmu.stage2_tlb.hits            0                       # Total TLB (inst and data) hits
system.cpu.dtb.stage2_mmu.stage2_tlb.misses            0                       # Total TLB (inst and data) misses
system.cpu.dtb.stage2_mmu.stage2_tlb.accesses            0                       # Total TLB (inst and data) accesses
system.cpu.dtb.stage2_mmu.stage2_tlb.walker.walks            0                       # Table walker walks requested
system.cpu.dtb.stage2_mmu.stage2_tlb.walker.requestOrigin_Requested::Data            0                       # Table walker requests started/completed, data/inst
system.cpu.dtb.stage2_mmu.stage2_tlb.walker.requestOrigin_Requested::Inst            0                       # Table walker requests started/completed, data/inst
system.cpu.dtb.stage2_mmu.stage2_tlb.walker.requestOrigin_Requested::total            0                       # Table walker requests started/completed, data/inst
system.cpu.dtb.stage2_mmu.stage2_tlb.walker.requestOrigin_Completed::Data            0                       # Table walker requests started/completed, data/inst
system.cpu.dtb.stage2_mmu.stage2_tlb.walker.requestOrigin_Completed::Inst            0                       # Table walker requests started/completed, data/inst
system.cpu.dtb.stage2_mmu.stage2_tlb.walker.requestOrigin_Completed::total            0                       # Table walker requests started/completed, data/inst
system.cpu.dtb.stage2_mmu.stage2_tlb.walker.requestOrigin::total            0                       # Table walker requests started/completed, data/inst
system.cpu.dtb.stage2_mmu.stage2_tlb.walker.power_state.pwrStateResidencyTicks::UNDEFINED  59399803500                       # Cumulative time (in ticks) in various power states
system.cpu.dtb.walker.walks                         0                       # Table walker walks requested
system.cpu.dtb.walker.requestOrigin_Requested::Data            0                       # Table walker requests started/completed, data/inst
system.cpu.dtb.walker.requestOrigin_Requested::Inst            0                       # Table walker requests started/completed, data/inst
system.cpu.dtb.walker.requestOrigin_Requested::total            0                       # Table walker requests started/completed, data/inst
system.cpu.dtb.walker.requestOrigin_Completed::Data            0                       # Table walker requests started/completed, data/inst
system.cpu.dtb.walker.requestOrigin_Completed::Inst            0                       # Table walker requests started/completed, data/inst
system.cpu.dtb.walker.requestOrigin_Completed::total            0                       # Table walker requests started/completed, data/inst
system.cpu.dtb.walker.requestOrigin::total            0                       # Table walker requests started/completed, data/inst
system.cpu.dtb.walker.power_state.pwrStateResidencyTicks::UNDEFINED  59399803500                       # Cumulative time (in ticks) in various power states
system.cpu.fetch2.intInstructions            48900284                       # Number of integer instructions successfully decoded
system.cpu.fetch2.fpInstructions                    0                       # Number of floating point instructions successfully decoded
system.cpu.fetch2.vecInstructions                   0                       # Number of SIMD instructions successfully decoded
system.cpu.fetch2.loadInstructions           40557496                       # Number of memory load instructions successfully decoded
system.cpu.fetch2.storeInstructions           6265852                       # Number of memory store instructions successfully decoded
system.cpu.fetch2.amoInstructions                   0                       # Number of memory atomic instructions successfully decoded
system.cpu.icache.demand_hits::.cpu.inst     17139869                       # number of demand (read+write) hits
system.cpu.icache.demand_hits::total         17139869                       # number of demand (read+write) hits
system.cpu.icache.overall_hits::.cpu.inst     17139869                       # number of overall hits
system.cpu.icache.overall_hits::total        17139869                       # number of overall hits
system.cpu.icache.demand_misses::.cpu.inst         1563                       # number of demand (read+write) misses
system.cpu.icache.demand_misses::total           1563                       # number of demand (read+write) misses
system.cpu.icache.overall_misses::.cpu.inst         1563                       # number of overall misses
system.cpu.icache.overall_misses::total          1563                       # number of overall misses
system.cpu.icache.demand_miss_latency::.cpu.inst    108150000                       # number of demand (read+write) miss cycles
system.cpu.icache.demand_miss_latency::total    108150000                       # number of demand (read+write) miss cycles
system.cpu.icache.overall_miss_latency::.cpu.inst    108150000                       # number of overall miss cycles
system.cpu.icache.overall_miss_latency::total    108150000                       # number of overall miss cycles
system.cpu.icache.demand_accesses::.cpu.inst     17141432                       # number of demand (read+write) accesses
system.cpu.icache.demand_accesses::total     17141432                       # number of demand (read+write) accesses
system.cpu.icache.overall_accesses::.cpu.inst     17141432                       # number of overall (read+write) accesses
system.cpu.icache.overall_accesses::total     17141432                       # number of overall (read+write) accesses
system.cpu.icache.demand_miss_rate::.cpu.inst     0.000091                       # miss rate for demand accesses
system.cpu.icache.demand_miss_rate::total     0.000091                       # miss rate for demand accesses
system.cpu.icache.overall_miss_rate::.cpu.inst     0.000091                       # miss rate for overall accesses
system.cpu.icache.overall_miss_rate::total     0.000091                       # miss rate for overall accesses
system.cpu.icache.demand_avg_miss_latency::.cpu.inst 69193.857965                       # average overall miss latency
system.cpu.icache.demand_avg_miss_latency::total 69193.857965                       # average overall miss latency
system.cpu.icache.overall_avg_miss_latency::.cpu.inst 69193.857965                       # average overall miss latency
system.cpu.icache.overall_avg_miss_latency::total 69193.857965                       # average overall miss latency
system.cpu.icache.blocked_cycles::no_mshrs            0                       # number of cycles access was blocked
system.cpu.icache.blocked_cycles::no_targets            0                       # number of cycles access was blocked
system.cpu.icache.blocked::no_mshrs                 0                       # number of cycles access was blocked
system.cpu.icache.blocked::no_targets               0                       # number of cycles access was blocked
system.cpu.icache.avg_blocked_cycles::no_mshrs          nan                       # average number of cycles each access was blocked
system.cpu.icache.avg_blocked_cycles::no_targets          nan                       # average number of cycles each access was blocked
system.cpu.icache.writebacks::.writebacks         1051                       # number of writebacks
system.cpu.icache.writebacks::total              1051                       # number of writebacks
system.cpu.icache.demand_mshr_misses::.cpu.inst         1563                       # number of demand (read+write) MSHR misses
system.cpu.icache.demand_mshr_misses::total         1563                       # number of demand (read+write) MSHR misses
system.cpu.icache.overall_mshr_misses::.cpu.inst         1563                       # number of overall MSHR misses
system.cpu.icache.overall_mshr_misses::total         1563                       # number of overall MSHR misses
system.cpu.icache.demand_mshr_miss_latency::.cpu.inst    106587000                       # number of demand (read+write) MSHR miss cycles
system.cpu.icache.demand_mshr_miss_latency::total    106587000                       # number of demand (read+write) MSHR miss cycles
system.cpu.icache.overall_mshr_miss_latency::.cpu.inst    106587000                       # number of overall MSHR miss cycles
system.cpu.icache.overall_mshr_miss_latency::total    106587000                       # number of overall MSHR miss cycles
system.cpu.icache.demand_mshr_miss_rate::.cpu.inst     0.000091                       # mshr miss rate for demand accesses
system.cpu.icache.demand_mshr_miss_rate::total     0.000091                       # mshr miss rate for demand accesses
system.cpu.icache.overall_mshr_miss_rate::.cpu.inst     0.000091                       # mshr miss rate for overall accesses
system.cpu.icache.overall_mshr_miss_rate::total     0.000091                       # mshr miss rate for overall accesses
system.cpu.icache.demand_avg_mshr_miss_latency::.cpu.inst 68193.857965                       # average overall mshr miss latency
system.cpu.icache.demand_avg_mshr_miss_latency::total 68193.857965                       # average overall mshr miss latency
system.cpu.icache.overall_avg_mshr_miss_latency::.cpu.inst 68193.857965                       # average overall mshr miss latency
system.cpu.icache.overall_avg_mshr_miss_latency::total 68193.857965                       # average overall mshr miss latency
system.cpu.icache.replacements                   1051                       # number of replacements
system.cpu.icache.ReadReq_hits::.cpu.inst     17139869                       # number of ReadReq hits
system.cpu.icache.ReadReq_hits::total        17139869                       # number of ReadReq hits
system.cpu.icache.ReadReq_misses::.cpu.inst         1563                       # number of ReadReq misses
system.cpu.icache.ReadReq_misses::total          1563                       # number of ReadReq misses
system.cpu.icache.ReadReq_miss_latency::.cpu.inst    108150000                       # number of ReadReq miss cycles
system.cpu.icache.ReadReq_miss_latency::total    108150000                       # number of ReadReq miss cycles
system.cpu.icache.ReadReq_accesses::.cpu.inst     17141432                       # number of ReadReq accesses(hits+misses)
system.cpu.icache.ReadReq_accesses::total     17141432                       # number of ReadReq accesses(hits+misses)
system.cpu.icache.ReadReq_miss_rate::.cpu.inst     0.000091                       # miss rate for ReadReq accesses
system.cpu.icache.ReadReq_miss_rate::total     0.000091                       # miss rate for ReadReq accesses
system.cpu.icache.ReadReq_avg_miss_latency::.cpu.inst 69193.857965                       # average ReadReq miss latency
system.cpu.icache.ReadReq_avg_miss_latency::total 69193.857965                       # average ReadReq miss latency
system.cpu.icache.ReadReq_mshr_misses::.cpu.inst         1563                       # number of ReadReq MSHR misses
system.cpu.icache.ReadReq_mshr_misses::total         1563                       # number of ReadReq MSHR misses
system.cpu.icache.ReadReq_mshr_miss_latency::.cpu.inst    106587000                       # number of ReadReq MSHR miss cycles
system.cpu.icache.ReadReq_mshr_miss_latency::total    106587000                       # number of ReadReq MSHR miss cycles
system.cpu.icache.ReadReq_mshr_miss_rate::.cpu.inst     0.000091                       # mshr miss rate for ReadReq accesses
system.cpu.icache.ReadReq_mshr_miss_rate::total     0.000091                       # mshr miss rate for ReadReq accesses
system.cpu.icache.ReadReq_avg_mshr_miss_latency::.cpu.inst 68193.857965                       # average ReadReq mshr miss latency
system.cpu.icache.ReadReq_avg_mshr_miss_latency::total 68193.857965                       # average ReadReq mshr miss latency
system.cpu.icache.power_state.pwrStateResidencyTicks::UNDEFINED  59399803500                       # Cumulative time (in ticks) in various power states
system.cpu.icache.tags.tagsinuse           511.755978                       # Cycle average of tags in use
system.cpu.icache.tags.total_refs            17141432                       # Total number of references to valid blocks.
system.cpu.icache.tags.sampled_refs              1563                       # Sample count of references to valid blocks.
system.cpu.icache.tags.avg_refs          10967.007038                       # Average number of references to valid blocks.
system.cpu.icache.tags.warmup_cycle             87500                       # Cycle when the warmup percentage was hit.
system.cpu.icache.tags.occ_blocks::.cpu.inst   511.755978                       # Average occupied blocks per requestor
system.cpu.icache.tags.occ_percent::.cpu.inst     0.999523                       # Average percentage of cache occupancy
system.cpu.icache.tags.occ_percent::total     0.999523                       # Average percentage of cache occupancy
system.cpu.icache.tags.occ_task_id_blocks::1024          512                       # Occupied blocks per task id
system.cpu.icache.tags.age_task_id_blocks_1024::3            1                       # Occupied blocks per task id
system.cpu.icache.tags.age_task_id_blocks_1024::4          511                       # Occupied blocks per task id
system.cpu.icache.tags.occ_task_id_percent::1024            1                       # Percentage of cache occupancy per task id
system.cpu.icache.tags.tag_accesses         274264475                       # Number of tag accesses
system.cpu.icache.tags.data_accesses        274264475                       # Number of data accesses
system.cpu.icache.tags.power_state.pwrStateResidencyTicks::UNDEFINED  59399803500                       # Cumulative time (in ticks) in various power states
system.cpu.itb.instHits                             0                       # ITB inst hits
system.cpu.itb.instMisses                           0                       # ITB inst misses
system.cpu.itb.readHits                             0                       # DTB read hits
system.cpu.itb.readMisses                           0                       # DTB read misses
system.cpu.itb.writeHits                            0                       # DTB write hits
system.cpu.itb.writeMisses                          0                       # DTB write misses
system.cpu.itb.inserts                              0                       # Number of times an entry is inserted into the TLB
system.cpu.itb.flushTlb                             0                       # Number of times complete TLB was flushed
system.cpu.itb.flushTlbMva                          0                       # Number of times TLB was flushed by MVA
system.cpu.itb.flushTlbMvaAsid                      0                       # Number of times TLB was flushed by MVA & ASID
system.cpu.itb.flushTlbAsid                         0                       # Number of times TLB was flushed by ASID
system.cpu.itb.flushedEntries                       0                       # Number of entries that have been flushed from TLB
system.cpu.itb.alignFaults                          0                       # Number of TLB faults due to alignment restrictions
system.cpu.itb.prefetchFaults                       0                       # Number of TLB faults due to prefetch
system.cpu.itb.domainFaults                         0                       # Number of TLB faults due to domain restrictions
system.cpu.itb.permsFaults                          0                       # Number of TLB faults due to permissions restrictions
system.cpu.itb.readAccesses                         0                       # DTB read accesses
system.cpu.itb.writeAccesses                        0                       # DTB write accesses
system.cpu.itb.instAccesses                         0                       # ITB inst accesses
system.cpu.itb.hits                                 0                       # Total TLB (inst and data) hits
system.cpu.itb.misses                               0                       # Total TLB (inst and data) misses
system.cpu.itb.accesses                             0                       # Total TLB (inst and data) accesses
system.cpu.itb.stage2_mmu.stage2_tlb.instHits            0                       # ITB inst hits
system.cpu.itb.stage2_mmu.stage2_tlb.instMisses            0                       # ITB inst misses
system.cpu.itb.stage2_mmu.stage2_tlb.readHits            0                       # DTB read hits
system.cpu.itb.stage2_mmu.stage2_tlb.readMisses            0                       # DTB read misses
system.cpu.itb.stage2_mmu.stage2_tlb.writeHits            0                       # DTB write hits
system.cpu.itb.stage2_mmu.stage2_tlb.writeMisses            0                       # DTB write misses
system.cpu.itb.stage2_mmu.stage2_tlb.inserts            0                       # Number of times an entry is inserted into the TLB
system.cpu.itb.stage2_mmu.stage2_tlb.flushTlb            0                       # Number of times complete TLB was flushed
system.cpu.itb.stage2_mmu.stage2_tlb.flushTlbMva            0                       # Number of times TLB was flushed by MVA
system.cpu.itb.stage2_mmu.stage2_tlb.flushTlbMvaAsid            0                       # Number of times TLB was flushed by MVA & ASID
system.cpu.itb.stage2_mmu.stage2_tlb.flushTlbAsid            0                       # Number of times TLB was flushed by ASID
system.cpu.itb.stage2_mmu.stage2_tlb.flushedEntries            0                       # Number of entries that have been flushed from TLB
system.cpu.itb.stage2_mmu.stage2_tlb.alignFaults            0                       # Number of TLB faults due to alignment restrictions
system.cpu.itb.stage2_mmu.stage2_tlb.prefetchFaults            0                       # Number of TLB faults due to prefetch
system.cpu.itb.stage2_mmu.stage2_tlb.domainFaults            0                       # Number of TLB faults due to domain restrictions
system.cpu.itb.stage2_mmu.stage2_tlb.permsFaults            0                       # Number of TLB faults due to permissions restrictions
system.cpu.itb.stage2_mmu.stage2_tlb.readAccesses            0                       # DTB read accesses
system.cpu.itb.stage2_mmu.stage2_tlb.writeAccesses            0                       # DTB write accesses
system.cpu.itb.stage2_mmu.stage2_tlb.instAccesses            0                       # ITB inst accesses
system.cpu.itb.stage2_mmu.stage2_tlb.hits            0                       # Total TLB (inst and data) hits
system.cpu.itb.stage2_mmu.stage2_tlb.misses            0                       # Total TLB (inst and data) misses
system.cpu.itb.stage2_mmu.stage2_tlb.accesses            0                       # Total TLB (inst and data) accesses
system.cpu.itb.stage2_mmu.stage2_tlb.walker.walks            0                       # Table walker walks requested
system.cpu.itb.stage2_mmu.stage2_tlb.walker.requestOrigin_Requested::Data            0                       # Table walker requests started/completed, data/inst
system.cpu.itb.stage2_mmu.stage2_tlb.walker.requestOrigin_Requested::Inst            0                       # Table walker requests started/completed, data/inst
system.cpu.itb.stage2_mmu.stage2_tlb.walker.requestOrigin_Requested::total            0                       # Table walker requests started/completed, data/inst
system.cpu.itb.stage2_mmu.stage2_tlb.walker.requestOrigin_Completed::Data            0                       # Table walker requests started/completed, data/inst
system.cpu.itb.stage2_mmu.stage2_tlb.walker.requestOrigin_Completed::Inst            0                       # Table walker requests started/completed, data/inst
system.cpu.itb.stage2_mmu.stage2_tlb.walker.requestOrigin_Completed::total            0                       # Table walker requests started/completed, data/inst
system.cpu.itb.stage2_mmu.stage2_tlb.walker.requestOrigin::total            0                       # Table walker requests started/completed, data/inst
system.cpu.itb.stage2_mmu.stage2_tlb.walker.power_state.pwrStateResidencyTicks::UNDEFINED  59399803500                       # Cumulative time (in ticks) in various power states
system.cpu.itb.walker.walks                         0                       # Table walker walks requested
system.cpu.itb.walker.requestOrigin_Requested::Data            0                       # Table walker requests started/completed, data/inst
system.cpu.itb.walker.requestOrigin_Requested::Inst            0                       # Table walker requests started/completed, data/inst
system.cpu.itb.walker.requestOrigin_Requested::total            0                       # Table walker requests started/completed, data/inst
system.cpu.itb.walker.requestOrigin_Completed::Data            0                       # Table walker requests started/completed, data/inst
system.cpu.itb.walker.requestOrigin_Completed::Inst            0                       # Table walker requests started/completed, data/inst
system.cpu.itb.walker.requestOrigin_Completed::total            0                       # Table walker requests started/completed, data/inst
system.cpu.itb.walker.requestOrigin::total            0                       # Table walker requests started/completed, data/inst
system.cpu.itb.walker.power_state.pwrStateResidencyTicks::UNDEFINED  59399803500                       # Cumulative time (in ticks) in various power states
system.cpu.power_state.pwrStateResidencyTicks::ON  59399803500                       # Cumulative time (in ticks) in various power states
system.cpu.thread_0.numInsts                100000000                       # Number of Instructions committed
system.cpu.thread_0.numOps                  101122355                       # Number of Ops committed
system.cpu.thread_0.numMemRefs                      0                       # Number of Memory References
system.cpu_clk_domain.clock                       500                       # Clock period in ticks
system.cpu_voltage_domain.voltage                   1                       # Voltage in Volts
system.l2.demand_hits::.cpu.inst                  243                       # number of demand (read+write) hits
system.l2.demand_hits::.cpu.data                64436                       # number of demand (read+write) hits
system.l2.demand_hits::total                    64679                       # number of demand (read+write) hits
system.l2.overall_hits::.cpu.inst                 243                       # number of overall hits
system.l2.overall_hits::.cpu.data               64436                       # number of overall hits
system.l2.overall_hits::total                   64679                       # number of overall hits
system.l2.demand_misses::.cpu.inst               1320                       # number of demand (read+write) misses
system.l2.demand_misses::.cpu.data               4471                       # number of demand (read+write) misses
system.l2.demand_misses::total                   5791                       # number of demand (read+write) misses
system.l2.overall_misses::.cpu.inst              1320                       # number of overall misses
system.l2.overall_misses::.cpu.data              4471                       # number of overall misses
system.l2.overall_misses::total                  5791                       # number of overall misses
system.l2.demand_miss_latency::.cpu.inst    101630000                       # number of demand (read+write) miss cycles
system.l2.demand_miss_latency::.cpu.data    346760500                       # number of demand (read+write) miss cycles
system.l2.demand_miss_latency::total        448390500                       # number of demand (read+write) miss cycles
system.l2.overall_miss_latency::.cpu.inst    101630000                       # number of overall miss cycles
system.l2.overall_miss_latency::.cpu.data    346760500                       # number of overall miss cycles
system.l2.overall_miss_latency::total       448390500                       # number of overall miss cycles
system.l2.demand_accesses::.cpu.inst             1563                       # number of demand (read+write) accesses
system.l2.demand_accesses::.cpu.data            68907                       # number of demand (read+write) accesses
system.l2.demand_accesses::total                70470                       # number of demand (read+write) accesses
system.l2.overall_accesses::.cpu.inst            1563                       # number of overall (read+write) accesses
system.l2.overall_accesses::.cpu.data           68907                       # number of overall (read+write) accesses
system.l2.overall_accesses::total               70470                       # number of overall (read+write) accesses
system.l2.demand_miss_rate::.cpu.inst        0.844530                       # miss rate for demand accesses
system.l2.demand_miss_rate::.cpu.data        0.064885                       # miss rate for demand accesses
system.l2.demand_miss_rate::total            0.082177                       # miss rate for demand accesses
system.l2.overall_miss_rate::.cpu.inst       0.844530                       # miss rate for overall accesses
system.l2.overall_miss_rate::.cpu.data       0.064885                       # miss rate for overall accesses
system.l2.overall_miss_rate::total           0.082177                       # miss rate for overall accesses
system.l2.demand_avg_miss_latency::.cpu.inst 76992.424242                       # average overall miss latency
system.l2.demand_avg_miss_latency::.cpu.data 77557.705211                       # average overall miss latency
system.l2.demand_avg_miss_latency::total 77428.855120                       # average overall miss latency
system.l2.overall_avg_miss_latency::.cpu.inst 76992.424242                       # average overall miss latency
system.l2.overall_avg_miss_latency::.cpu.data 77557.705211                       # average overall miss latency
system.l2.overall_avg_miss_latency::total 77428.855120                       # average overall miss latency
system.l2.blocked_cycles::no_mshrs                  0                       # number of cycles access was blocked
system.l2.blocked_cycles::no_targets                0                       # number of cycles access was blocked
system.l2.blocked::no_mshrs                         0                       # number of cycles access was blocked
system.l2.blocked::no_targets                       0                       # number of cycles access was blocked
system.l2.avg_blocked_cycles::no_mshrs            nan                       # average number of cycles each access was blocked
system.l2.avg_blocked_cycles::no_targets          nan                       # average number of cycles each access was blocked
system.l2.demand_mshr_hits::.cpu.inst               2                       # number of demand (read+write) MSHR hits
system.l2.demand_mshr_hits::.cpu.data               8                       # number of demand (read+write) MSHR hits
system.l2.demand_mshr_hits::total                  10                       # number of demand (read+write) MSHR hits
system.l2.overall_mshr_hits::.cpu.inst              2                       # number of overall MSHR hits
system.l2.overall_mshr_hits::.cpu.data              8                       # number of overall MSHR hits
system.l2.overall_mshr_hits::total                 10                       # number of overall MSHR hits
system.l2.demand_mshr_misses::.cpu.inst          1318                       # number of demand (read+write) MSHR misses
system.l2.demand_mshr_misses::.cpu.data          4463                       # number of demand (read+write) MSHR misses
system.l2.demand_mshr_misses::total              5781                       # number of demand (read+write) MSHR misses
system.l2.overall_mshr_misses::.cpu.inst         1318                       # number of overall MSHR misses
system.l2.overall_mshr_misses::.cpu.data         4463                       # number of overall MSHR misses
system.l2.overall_mshr_misses::total             5781                       # number of overall MSHR misses
system.l2.demand_mshr_miss_latency::.cpu.inst     88319000                       # number of demand (read+write) MSHR miss cycles
system.l2.demand_mshr_miss_latency::.cpu.data    301635500                       # number of demand (read+write) MSHR miss cycles
system.l2.demand_mshr_miss_latency::total    389954500                       # number of demand (read+write) MSHR miss cycles
system.l2.overall_mshr_miss_latency::.cpu.inst     88319000                       # number of overall MSHR miss cycles
system.l2.overall_mshr_miss_latency::.cpu.data    301635500                       # number of overall MSHR miss cycles
system.l2.overall_mshr_miss_latency::total    389954500                       # number of overall MSHR miss cycles
system.l2.demand_mshr_miss_rate::.cpu.inst     0.843250                       # mshr miss rate for demand accesses
system.l2.demand_mshr_miss_rate::.cpu.data     0.064768                       # mshr miss rate for demand accesses
system.l2.demand_mshr_miss_rate::total       0.082035                       # mshr miss rate for demand accesses
system.l2.overall_mshr_miss_rate::.cpu.inst     0.843250                       # mshr miss rate for overall accesses
system.l2.overall_mshr_miss_rate::.cpu.data     0.064768                       # mshr miss rate for overall accesses
system.l2.overall_mshr_miss_rate::total      0.082035                       # mshr miss rate for overall accesses
system.l2.demand_avg_mshr_miss_latency::.cpu.inst 67009.863429                       # average overall mshr miss latency
system.l2.demand_avg_mshr_miss_latency::.cpu.data 67585.816715                       # average overall mshr miss latency
system.l2.demand_avg_mshr_miss_latency::total 67454.506141                       # average overall mshr miss latency
system.l2.overall_avg_mshr_miss_latency::.cpu.inst 67009.863429                       # average overall mshr miss latency
system.l2.overall_avg_mshr_miss_latency::.cpu.data 67585.816715                       # average overall mshr miss latency
system.l2.overall_avg_mshr_miss_latency::total 67454.506141                       # average overall mshr miss latency
system.l2.replacements                              0                       # number of replacements
system.l2.WritebackDirty_hits::.writebacks        65769                       # number of WritebackDirty hits
system.l2.WritebackDirty_hits::total            65769                       # number of WritebackDirty hits
system.l2.WritebackDirty_accesses::.writebacks        65769                       # number of WritebackDirty accesses(hits+misses)
system.l2.WritebackDirty_accesses::total        65769                       # number of WritebackDirty accesses(hits+misses)
system.l2.WritebackClean_hits::.writebacks         1005                       # number of WritebackClean hits
system.l2.WritebackClean_hits::total             1005                       # number of WritebackClean hits
system.l2.WritebackClean_accesses::.writebacks         1005                       # number of WritebackClean accesses(hits+misses)
system.l2.WritebackClean_accesses::total         1005                       # number of WritebackClean accesses(hits+misses)
system.l2.ReadExReq_hits::.cpu.data             49654                       # number of ReadExReq hits
system.l2.ReadExReq_hits::total                 49654                       # number of ReadExReq hits
system.l2.ReadExReq_misses::.cpu.data            3669                       # number of ReadExReq misses
system.l2.ReadExReq_misses::total                3669                       # number of ReadExReq misses
system.l2.ReadExReq_miss_latency::.cpu.data    282204000                       # number of ReadExReq miss cycles
system.l2.ReadExReq_miss_latency::total     282204000                       # number of ReadExReq miss cycles
system.l2.ReadExReq_accesses::.cpu.data         53323                       # number of ReadExReq accesses(hits+misses)
system.l2.ReadExReq_accesses::total             53323                       # number of ReadExReq accesses(hits+misses)
system.l2.ReadExReq_miss_rate::.cpu.data     0.068807                       # miss rate for ReadExReq accesses
system.l2.ReadExReq_miss_rate::total         0.068807                       # miss rate for ReadExReq accesses
system.l2.ReadExReq_avg_miss_latency::.cpu.data 76915.780867                       # average ReadExReq miss latency
system.l2.ReadExReq_avg_miss_latency::total 76915.780867                       # average ReadExReq miss latency
system.l2.ReadExReq_mshr_misses::.cpu.data         3669                       # number of ReadExReq MSHR misses
system.l2.ReadExReq_mshr_misses::total           3669                       # number of ReadExReq MSHR misses
system.l2.ReadExReq_mshr_miss_latency::.cpu.data    245514000                       # number of ReadExReq MSHR miss cycles
system.l2.ReadExReq_mshr_miss_latency::total    245514000                       # number of ReadExReq MSHR miss cycles
system.l2.ReadExReq_mshr_miss_rate::.cpu.data     0.068807                       # mshr miss rate for ReadExReq accesses
system.l2.ReadExReq_mshr_miss_rate::total     0.068807                       # mshr miss rate for ReadExReq accesses
system.l2.ReadExReq_avg_mshr_miss_latency::.cpu.data 66915.780867                       # average ReadExReq mshr miss latency
system.l2.ReadExReq_avg_mshr_miss_latency::total 66915.780867                       # average ReadExReq mshr miss latency
system.l2.ReadCleanReq_hits::.cpu.inst            243                       # number of ReadCleanReq hits
system.l2.ReadCleanReq_hits::total                243                       # number of ReadCleanReq hits
system.l2.ReadCleanReq_misses::.cpu.inst         1320                       # number of ReadCleanReq misses
system.l2.ReadCleanReq_misses::total             1320                       # number of ReadCleanReq misses
system.l2.ReadCleanReq_miss_latency::.cpu.inst    101630000                       # number of ReadCleanReq miss cycles
system.l2.ReadCleanReq_miss_latency::total    101630000                       # number of ReadCleanReq miss cycles
system.l2.ReadCleanReq_accesses::.cpu.inst         1563                       # number of ReadCleanReq accesses(hits+misses)
system.l2.ReadCleanReq_accesses::total           1563                       # number of ReadCleanReq accesses(hits+misses)
system.l2.ReadCleanReq_miss_rate::.cpu.inst     0.844530                       # miss rate for ReadCleanReq accesses
system.l2.ReadCleanReq_miss_rate::total      0.844530                       # miss rate for ReadCleanReq accesses
system.l2.ReadCleanReq_avg_miss_latency::.cpu.inst 76992.424242                       # average ReadCleanReq miss latency
system.l2.ReadCleanReq_avg_miss_latency::total 76992.424242                       # average ReadCleanReq miss latency
system.l2.ReadCleanReq_mshr_hits::.cpu.inst            2                       # number of ReadCleanReq MSHR hits
system.l2.ReadCleanReq_mshr_hits::total             2                       # number of ReadCleanReq MSHR hits
system.l2.ReadCleanReq_mshr_misses::.cpu.inst         1318                       # number of ReadCleanReq MSHR misses
system.l2.ReadCleanReq_mshr_misses::total         1318                       # number of ReadCleanReq MSHR misses
system.l2.ReadCleanReq_mshr_miss_latency::.cpu.inst     88319000                       # number of ReadCleanReq MSHR miss cycles
system.l2.ReadCleanReq_mshr_miss_latency::total     88319000                       # number of ReadCleanReq MSHR miss cycles
system.l2.ReadCleanReq_mshr_miss_rate::.cpu.inst     0.843250                       # mshr miss rate for ReadCleanReq accesses
system.l2.ReadCleanReq_mshr_miss_rate::total     0.843250                       # mshr miss rate for ReadCleanReq accesses
system.l2.ReadCleanReq_avg_mshr_miss_latency::.cpu.inst 67009.863429                       # average ReadCleanReq mshr miss latency
system.l2.ReadCleanReq_avg_mshr_miss_latency::total 67009.863429                       # average ReadCleanReq mshr miss latency
system.l2.ReadSharedReq_hits::.cpu.data         14782                       # number of ReadSharedReq hits
system.l2.ReadSharedReq_hits::total             14782                       # number of ReadSharedReq hits
system.l2.ReadSharedReq_misses::.cpu.data          802                       # number of ReadSharedReq misses
system.l2.ReadSharedReq_misses::total             802                       # number of ReadSharedReq misses
system.l2.ReadSharedReq_miss_latency::.cpu.data     64556500                       # number of ReadSharedReq miss cycles
system.l2.ReadSharedReq_miss_latency::total     64556500                       # number of ReadSharedReq miss cycles
system.l2.ReadSharedReq_accesses::.cpu.data        15584                       # number of ReadSharedReq accesses(hits+misses)
system.l2.ReadSharedReq_accesses::total         15584                       # number of ReadSharedReq accesses(hits+misses)
system.l2.ReadSharedReq_miss_rate::.cpu.data     0.051463                       # miss rate for ReadSharedReq accesses
system.l2.ReadSharedReq_miss_rate::total     0.051463                       # miss rate for ReadSharedReq accesses
system.l2.ReadSharedReq_avg_miss_latency::.cpu.data 80494.389027                       # average ReadSharedReq miss latency
system.l2.ReadSharedReq_avg_miss_latency::total 80494.389027                       # average ReadSharedReq miss latency
system.l2.ReadSharedReq_mshr_hits::.cpu.data            8                       # number of ReadSharedReq MSHR hits
system.l2.ReadSharedReq_mshr_hits::total            8                       # number of ReadSharedReq MSHR hits
system.l2.ReadSharedReq_mshr_misses::.cpu.data          794                       # number of ReadSharedReq MSHR misses
system.l2.ReadSharedReq_mshr_misses::total          794                       # number of ReadSharedReq MSHR misses
system.l2.ReadSharedReq_mshr_miss_latency::.cpu.data     56121500                       # number of ReadSharedReq MSHR miss cycles
system.l2.ReadSharedReq_mshr_miss_latency::total     56121500                       # number of ReadSharedReq MSHR miss cycles
system.l2.ReadSharedReq_mshr_miss_rate::.cpu.data     0.050950                       # mshr miss rate for ReadSharedReq accesses
system.l2.ReadSharedReq_mshr_miss_rate::total     0.050950                       # mshr miss rate for ReadSharedReq accesses
system.l2.ReadSharedReq_avg_mshr_miss_latency::.cpu.data 70681.989924                       # average ReadSharedReq mshr miss latency
system.l2.ReadSharedReq_avg_mshr_miss_latency::total 70681.989924                       # average ReadSharedReq mshr miss latency
system.l2.power_state.pwrStateResidencyTicks::UNDEFINED  59399803500                       # Cumulative time (in ticks) in various power states
system.l2.tags.tagsinuse                  5565.442142                       # Cycle average of tags in use
system.l2.tags.total_refs                      138645                       # Total number of references to valid blocks.
system.l2.tags.sampled_refs                      5781                       # Sample count of references to valid blocks.
system.l2.tags.avg_refs                     23.982875                       # Average number of references to valid blocks.
system.l2.tags.warmup_cycle                     77000                       # Cycle when the warmup percentage was hit.
system.l2.tags.occ_blocks::.cpu.inst      1310.216420                       # Average occupied blocks per requestor
system.l2.tags.occ_blocks::.cpu.data      4255.225722                       # Average occupied blocks per requestor
system.l2.tags.occ_percent::.cpu.inst        0.039985                       # Average percentage of cache occupancy
system.l2.tags.occ_percent::.cpu.data        0.129859                       # Average percentage of cache occupancy
system.l2.tags.occ_percent::total            0.169844                       # Average percentage of cache occupancy
system.l2.tags.occ_task_id_blocks::1024          5781                       # Occupied blocks per task id
system.l2.tags.age_task_id_blocks_1024::3            1                       # Occupied blocks per task id
system.l2.tags.age_task_id_blocks_1024::4         5780                       # Occupied blocks per task id
system.l2.tags.occ_task_id_percent::1024     0.176422                       # Percentage of cache occupancy per task id
system.l2.tags.tag_accesses                   1115021                       # Number of tag accesses
system.l2.tags.data_accesses                  1115021                       # Number of data accesses
system.l2.tags.power_state.pwrStateResidencyTicks::UNDEFINED  59399803500                       # Cumulative time (in ticks) in various power states
system.mem_ctrls.avgPriority_.cpu.inst::samples      1318.00                       # Average QoS priority value for accepted requests
system.mem_ctrls.avgPriority_.cpu.data::samples      4463.00                       # Average QoS priority value for accepted requests
system.mem_ctrls.priorityMinLatency      0.000000018750                       # per QoS priority minimum request to response latency (s)
system.mem_ctrls.priorityMaxLatency      0.000000578500                       # per QoS priority maximum request to response latency (s)
system.mem_ctrls.numReadWriteTurnArounds            0                       # Number of turnarounds from READ to WRITE
system.mem_ctrls.numWriteReadTurnArounds            0                       # Number of turnarounds from WRITE to READ
system.mem_ctrls.numStayReadState               26807                       # Number of times bus staying in READ state
system.mem_ctrls.numStayWriteState                  0                       # Number of times bus staying in WRITE state
system.mem_ctrls.readReqs                        5781                       # Number of read requests accepted
system.mem_ctrls.writeReqs                          0                       # Number of write requests accepted
system.mem_ctrls.readBursts                      5781                       # Number of controller read bursts, including those serviced by the write queue
system.mem_ctrls.writeBursts                        0                       # Number of controller write bursts, including those merged in the write queue
system.mem_ctrls.servicedByWrQ                      0                       # Number of controller read bursts serviced by the write queue
system.mem_ctrls.mergedWrBursts                     0                       # Number of controller write bursts merged with an existing one
system.mem_ctrls.neitherReadNorWriteReqs            0                       # Number of requests that are neither read nor write
system.mem_ctrls.avgRdQLen                       1.01                       # Average read queue length when enqueuing
system.mem_ctrls.avgWrQLen                       0.00                       # Average write queue length when enqueuing
system.mem_ctrls.numRdRetry                         0                       # Number of times read queue was full causing retry
system.mem_ctrls.numWrRetry                         0                       # Number of times write queue was full causing retry
system.mem_ctrls.readPktSize::0                     0                       # Read request sizes (log2)
system.mem_ctrls.readPktSize::1                     0                       # Read request sizes (log2)
system.mem_ctrls.readPktSize::2                     0                       # Read request sizes (log2)
system.mem_ctrls.readPktSize::3                     0                       # Read request sizes (log2)
system.mem_ctrls.readPktSize::4                     0                       # Read request sizes (log2)
system.mem_ctrls.readPktSize::5                     0                       # Read request sizes (log2)
system.mem_ctrls.readPktSize::6                  5781                       # Read request sizes (log2)
system.mem_ctrls.writePktSize::0                    0                       # Write request sizes (log2)
system.mem_ctrls.writePktSize::1                    0                       # Write request sizes (log2)
system.mem_ctrls.writePktSize::2                    0                       # Write request sizes (log2)
system.mem_ctrls.writePktSize::3                    0                       # Write request sizes (log2)
[...]
system.mem_ctrls.dram.bw_read::.cpu.data      4808635                       # Total read bandwidth from this memory (bytes/s)
system.mem_ctrls.dram.bw_read::total          6228707                       # Total read bandwidth from this memory (bytes/s)
system.mem_ctrls.dram.bw_inst_read::.cpu.inst      1420072                       # Instruction read bandwidth from this memory (bytes/s)
system.mem_ctrls.dram.bw_inst_read::total      1420072                       # Instruction read bandwidth from this memory (bytes/s)
system.mem_ctrls.dram.bw_total::.cpu.inst      1420072                       # Total bandwidth to/from this memory (bytes/s)
system.mem_ctrls.dram.bw_total::.cpu.data      4808635                       # Total bandwidth to/from this memory (bytes/s)
system.mem_ctrls.dram.bw_total::total         6228707                       # Total bandwidth to/from this memory (bytes/s)
system.mem_ctrls.dram.readBursts                 5781                       # Number of DRAM read bursts
system.mem_ctrls.dram.writeBursts                   0                       # Number of DRAM write bursts
system.mem_ctrls.dram.perBankRdBursts::0          298                       # Per bank write bursts
system.mem_ctrls.dram.perBankRdBursts::1          338                       # Per bank write bursts
system.mem_ctrls.dram.perBankRdBursts::2          342                       # Per bank write bursts
system.mem_ctrls.dram.perBankRdBursts::3          325                       # Per bank write bursts
system.mem_ctrls.dram.perBankRdBursts::4          322                       # Per bank write bursts
system.mem_ctrls.dram.perBankRdBursts::5          534                       # Per bank write bursts
system.mem_ctrls.dram.perBankRdBursts::6          351                       # Per bank write bursts
system.mem_ctrls.dram.perBankRdBursts::7          447                       # Per bank write bursts
system.mem_ctrls.dram.perBankRdBursts::8          282                       # Per bank write bursts
system.mem_ctrls.dram.perBankRdBursts::9          405                       # Per bank write bursts
system.mem_ctrls.dram.perBankRdBursts::10          395                       # Per bank write bursts
system.mem_ctrls.dram.perBankRdBursts::11          385                       # Per bank write bursts
system.mem_ctrls.dram.perBankRdBursts::12          418                       # Per bank write bursts
system.mem_ctrls.dram.perBankRdBursts::13          349                       # Per bank write bursts
system.mem_ctrls.dram.perBankRdBursts::14          308                       # Per bank write bursts
system.mem_ctrls.dram.perBankRdBursts::15          282                       # Per bank write bursts
system.mem_ctrls.dram.perBankWrBursts::0            0                       # Per bank write bursts
system.mem_ctrls.dram.perBankWrBursts::1            0                       # Per bank write bursts
system.mem_ctrls.dram.perBankWrBursts::2            0                       # Per bank write bursts
system.mem_ctrls.dram.perBankWrBursts::3            0                       # Per bank write bursts
system.mem_ctrls.dram.perBankWrBursts::4            0                       # Per bank write bursts
system.mem_ctrls.dram.perBankWrBursts::5            0                       # Per bank write bursts
system.mem_ctrls.dram.perBankWrBursts::6            0                       # Per bank write bursts
system.mem_ctrls.dram.perBankWrBursts::7            0                       # Per bank write bursts
system.mem_ctrls.dram.perBankWrBursts::8            0                       # Per bank write bursts
system.mem_ctrls.dram.perBankWrBursts::9            0                       # Per bank write bursts
system.mem_ctrls.dram.perBankWrBursts::10            0                       # Per bank write bursts
system.mem_ctrls.dram.perBankWrBursts::11            0                       # Per bank write bursts
system.mem_ctrls.dram.perBankWrBursts::12            0                       # Per bank write bursts
system.mem_ctrls.dram.perBankWrBursts::13            0                       # Per bank write bursts
system.mem_ctrls.dram.perBankWrBursts::14            0                       # Per bank write bursts
system.mem_ctrls.dram.perBankWrBursts::15            0                       # Per bank write bursts
system.mem_ctrls.dram.totQLat                44298500                       # Total ticks spent queuing
system.mem_ctrls.dram.totBusLat              28905000                       # Total ticks spent in databus transfers
system.mem_ctrls.dram.totMemAccLat          152692250                       # Total ticks spent from burst creation until serviced by the DRAM
system.mem_ctrls.dram.avgQLat                 7662.77                       # Average queueing delay per DRAM burst
system.mem_ctrls.dram.avgBusLat               5000.00                       # Average bus latency per DRAM burst
system.mem_ctrls.dram.avgMemAccLat           26412.77                       # Average memory access latency per DRAM burst
system.mem_ctrls.dram.readRowHits                4557                       # Number of row buffer hits during reads
system.mem_ctrls.dram.writeRowHits                  0                       # Number of row buffer hits during writes
system.mem_ctrls.dram.readRowHitRate            78.83                       # Row buffer hit rate for reads
system.mem_ctrls.dram.writeRowHitRate             nan                       # Row buffer hit rate for writes
system.mem_ctrls.dram.bytesPerActivate::samples         1224                       # Bytes accessed per row activation
system.mem_ctrls.dram.bytesPerActivate::mean   302.274510                       # Bytes accessed per row activation
system.mem_ctrls.dram.bytesPerActivate::gmean   200.766878                       # Bytes accessed per row activation
system.mem_ctrls.dram.bytesPerActivate::stdev   294.607146                       # Bytes accessed per row activation
system.mem_ctrls.dram.bytesPerActivate::0-127          317     25.90%     25.90% # Bytes accessed per row activation
system.mem_ctrls.dram.bytesPerActivate::128-255          413     33.74%     59.64% # Bytes accessed per row activation
system.mem_ctrls.dram.bytesPerActivate::256-383          160     13.07%     72.71% # Bytes accessed per row activation
system.mem_ctrls.dram.bytesPerActivate::384-511          124     10.13%     82.84% # Bytes accessed per row activation
system.mem_ctrls.dram.bytesPerActivate::512-639           35      2.86%     85.70% # Bytes accessed per row activation
system.mem_ctrls.dram.bytesPerActivate::640-767           18      1.47%     87.17% # Bytes accessed per row activation
system.mem_ctrls.dram.bytesPerActivate::768-895           15      1.23%     88.40% # Bytes accessed per row activation
system.mem_ctrls.dram.bytesPerActivate::896-1023           26      2.12%     90.52% # Bytes accessed per row activation
system.mem_ctrls.dram.bytesPerActivate::1024-1151          116      9.48%    100.00% # Bytes accessed per row activation
system.mem_ctrls.dram.bytesPerActivate::total         1224                       # Bytes accessed per row activation
system.mem_ctrls.dram.bytesRead                369984                       # Total number of bytes read from DRAM
system.mem_ctrls.dram.bytesWritten                  0                       # Total number of bytes written to DRAM
system.mem_ctrls.dram.avgRdBW                6.228707                       # Average DRAM read bandwidth in MiBytes/s
system.mem_ctrls.dram.avgWrBW                       0                       # Average DRAM write bandwidth in MiBytes/s
system.mem_ctrls.dram.peakBW                 12800.00                       # Theoretical peak bandwidth in MiByte/s
system.mem_ctrls.dram.busUtil                    0.05                       # Data bus utilization in percentage
system.mem_ctrls.dram.busUtilRead                0.05                       # Data bus utilization in percentage for reads
system.mem_ctrls.dram.busUtilWrite               0.00                       # Data bus utilization in percentage for writes
system.mem_ctrls.dram.pageHitRate               78.83                       # Row buffer hit rate, read and write combined
system.mem_ctrls.dram.power_state.pwrStateResidencyTicks::UNDEFINED  59399803500                       # Cumulative time (in ticks) in various power states
system.mem_ctrls.dram.rank0.actEnergy         4376820                       # Energy for activate commands per rank (pJ)
system.mem_ctrls.dram.rank0.preEnergy         2326335                       # Energy for precharge commands per rank (pJ)
system.mem_ctrls.dram.rank0.readEnergy       21112980                       # Energy for read commands per rank (pJ)
system.mem_ctrls.dram.rank0.writeEnergy             0                       # Energy for write commands per rank (pJ)
system.mem_ctrls.dram.rank0.refreshEnergy 4688473920.000001                       # Energy for refresh commands per rank (pJ)
system.mem_ctrls.dram.rank0.actBackEnergy   1573300320                       # Energy for active background per rank (pJ)
system.mem_ctrls.dram.rank0.preBackEnergy  21484640160                       # Energy for precharge background per rank (pJ)
system.mem_ctrls.dram.rank0.actPowerDownEnergy            0                       # Energy for active power-down per rank (pJ)
system.mem_ctrls.dram.rank0.prePowerDownEnergy            0                       # Energy for precharge power-down per rank (pJ)
system.mem_ctrls.dram.rank0.selfRefreshEnergy            0                       # Energy for self refresh per rank (pJ)
system.mem_ctrls.dram.rank0.totalEnergy   27774230535                       # Total energy per rank (pJ)
system.mem_ctrls.dram.rank0.averagePower   467.581185                       # Core power per rank (mW)
system.mem_ctrls.dram.rank0.totalIdleTime            0                       # Total Idle time Per DRAM Rank
system.mem_ctrls.dram.rank0.pwrStateTime::IDLE  55840561750                       # Time in different power states
system.mem_ctrls.dram.rank0.pwrStateTime::REF   1983280000                       # Time in different power states
system.mem_ctrls.dram.rank0.pwrStateTime::SREF            0                       # Time in different power states
system.mem_ctrls.dram.rank0.pwrStateTime::PRE_PDN            0                       # Time in different power states
system.mem_ctrls.dram.rank0.pwrStateTime::ACT   1575961750                       # Time in different power states
system.mem_ctrls.dram.rank0.pwrStateTime::ACT_PDN            0                       # Time in different power states
system.mem_ctrls.dram.rank1.actEnergy         4362540                       # Energy for activate commands per rank (pJ)
system.mem_ctrls.dram.rank1.preEnergy         2318745                       # Energy for precharge commands per rank (pJ)
system.mem_ctrls.dram.rank1.readEnergy       20163360                       # Energy for read commands per rank (pJ)
system.mem_ctrls.dram.rank1.writeEnergy             0                       # Energy for write commands per rank (pJ)
system.mem_ctrls.dram.rank1.refreshEnergy 4688473920.000001                       # Energy for refresh commands per rank (pJ)
system.mem_ctrls.dram.rank1.actBackEnergy   1636641570                       # Energy for active background per rank (pJ)
system.mem_ctrls.dram.rank1.preBackEnergy  21431300160                       # Energy for precharge background per rank (pJ)
system.mem_ctrls.dram.rank1.actPowerDownEnergy            0                       # Energy for active power-down per rank (pJ)
system.mem_ctrls.dram.rank1.prePowerDownEnergy            0                       # Energy for precharge power-down per rank (pJ)
system.mem_ctrls.dram.rank1.selfRefreshEnergy            0                       # Energy for self refresh per rank (pJ)
system.mem_ctrls.dram.rank1.totalEnergy   27783260295                       # Total energy per rank (pJ)
system.mem_ctrls.dram.rank1.averagePower   467.733202                       # Core power per rank (mW)
system.mem_ctrls.dram.rank1.totalIdleTime            0                       # Total Idle time Per DRAM Rank
system.mem_ctrls.dram.rank1.pwrStateTime::IDLE  55701227750                       # Time in different power states
system.mem_ctrls.dram.rank1.pwrStateTime::REF   1983280000                       # Time in different power states
system.mem_ctrls.dram.rank1.pwrStateTime::SREF            0                       # Time in different power states
system.mem_ctrls.dram.rank1.pwrStateTime::PRE_PDN            0                       # Time in different power states
system.mem_ctrls.dram.rank1.pwrStateTime::ACT   1715295750                       # Time in different power states
system.mem_ctrls.dram.rank1.pwrStateTime::ACT_PDN            0                       # Time in different power states
system.mem_ctrls.power_state.pwrStateResidencyTicks::UNDEFINED  59399803500                       # Cumulative time (in ticks) in various power states
system.membus.trans_dist::ReadResp               2112                       # Transaction distribution
system.membus.trans_dist::ReadExReq              3669                       # Transaction distribution
system.membus.trans_dist::ReadExResp             3669                       # Transaction distribution
system.membus.trans_dist::ReadSharedReq          2112                       # Transaction distribution
system.membus.pkt_count_system.l2.mem_side_port::system.mem_ctrls.port        11562                       # Packet count per connected requestor and responder (bytes)
system.membus.pkt_count::total                  11562                       # Packet count per connected requestor and responder (bytes)
system.membus.pkt_size_system.l2.mem_side_port::system.mem_ctrls.port       369984                       # Cumulative packet size per connected requestor and responder (bytes)
system.membus.pkt_size::total                  369984                       # Cumulative packet size per connected requestor and responder (bytes)
system.membus.snoops                                0                       # Total snoops (count)
system.membus.snoopTraffic                          0                       # Total snoop traffic (bytes)
system.membus.snoop_fanout::samples              5781                       # Request fanout histogram
system.membus.snoop_fanout::mean                    0                       # Request fanout histogram
system.membus.snoop_fanout::stdev                   0                       # Request fanout histogram
system.membus.snoop_fanout::underflows              0      0.00%      0.00% # Request fanout histogram
system.membus.snoop_fanout::0                    5781    100.00%    100.00% # Request fanout histogram
system.membus.snoop_fanout::1                       0      0.00%    100.00% # Request fanout histogram
system.membus.snoop_fanout::overflows               0      0.00%    100.00% # Request fanout histogram
system.membus.snoop_fanout::min_value               0                       # Request fanout histogram
system.membus.snoop_fanout::max_value               0                       # Request fanout histogram
system.membus.snoop_fanout::total                5781                       # Request fanout histogram
system.membus.power_state.pwrStateResidencyTicks::UNDEFINED  59399803500                       # Cumulative time (in ticks) in various power states
system.membus.reqLayer0.occupancy             6965000                       # Layer occupancy (ticks)
system.membus.reqLayer0.utilization               0.0                       # Layer utilization (%)
system.membus.respLayer1.occupancy           30660750                       # Layer occupancy (ticks)
system.membus.respLayer1.utilization              0.1                       # Layer utilization (%)
system.tol2bus.trans_dist::ReadResp             17147                       # Transaction distribution
system.tol2bus.trans_dist::WritebackDirty        65769                       # Transaction distribution
system.tol2bus.trans_dist::WritebackClean         1051                       # Transaction distribution
system.tol2bus.trans_dist::CleanEvict            2114                       # Transaction distribution
system.tol2bus.trans_dist::ReadExReq            53323                       # Transaction distribution
system.tol2bus.trans_dist::ReadExResp           53323                       # Transaction distribution
system.tol2bus.trans_dist::ReadCleanReq          1563                       # Transaction distribution
system.tol2bus.trans_dist::ReadSharedReq        15584                       # Transaction distribution
system.tol2bus.pkt_count_system.cpu.icache.mem_side_port::system.l2.cpu_side_port         4177                       # Packet count per connected requestor and responder (bytes)
system.tol2bus.pkt_count_system.cpu.dcache.mem_side_port::system.l2.cpu_side_port       205697                       # Packet count per connected requestor and responder (bytes)
system.tol2bus.pkt_count::total                209874                       # Packet count per connected requestor and responder (bytes)
system.tol2bus.pkt_size_system.cpu.icache.mem_side_port::system.l2.cpu_side_port       167296                       # Cumulative packet size per connected requestor and responder (bytes)
system.tol2bus.pkt_size_system.cpu.dcache.mem_side_port::system.l2.cpu_side_port      8619264                       # Cumulative packet size per connected requestor and responder (bytes)
system.tol2bus.pkt_size::total                8786560                       # Cumulative packet size per connected requestor and responder (bytes)
system.tol2bus.snoops                               0                       # Total snoops (count)
system.tol2bus.snoopTraffic                         0                       # Total snoop traffic (bytes)
system.tol2bus.snoop_fanout::samples            70470                       # Request fanout histogram
system.tol2bus.snoop_fanout::mean            0.010841                       # Request fanout histogram
system.tol2bus.snoop_fanout::stdev           0.103557                       # Request fanout histogram
system.tol2bus.snoop_fanout::underflows             0      0.00%      0.00% # Request fanout histogram
system.tol2bus.snoop_fanout::0                  69706     98.92%     98.92% # Request fanout histogram
system.tol2bus.snoop_fanout::1                    764      1.08%    100.00% # Request fanout histogram
system.tol2bus.snoop_fanout::2                      0      0.00%    100.00% # Request fanout histogram
system.tol2bus.snoop_fanout::overflows              0      0.00%    100.00% # Request fanout histogram
system.tol2bus.snoop_fanout::min_value              0                       # Request fanout histogram
system.tol2bus.snoop_fanout::max_value              1                       # Request fanout histogram
system.tol2bus.snoop_fanout::total              70470                       # Request fanout histogram
system.tol2bus.power_state.pwrStateResidencyTicks::UNDEFINED  59399803500                       # Cumulative time (in ticks) in various power states
system.tol2bus.reqLayer0.occupancy          136522000                       # Layer occupancy (ticks)
system.tol2bus.reqLayer0.utilization              0.2                       # Layer utilization (%)
system.tol2bus.respLayer0.occupancy           2345498                       # Layer occupancy (ticks)
system.tol2bus.respLayer0.utilization             0.0                       # Layer utilization (%)
system.tol2bus.respLayer1.occupancy         103364492                       # Layer occupancy (ticks)
system.tol2bus.respLayer1.utilization             0.2                       # Layer utilization (%)
system.voltage_domain.voltage                       1                       # Voltage in Volts

---------- End Simulation Statistics   ----------
