
---------- Begin Simulation Statistics ----------
final_tick                                83075823000                       # Number of ticks from beginning of simulation (restored from checkpoints and never reset)
host_inst_rate                                 275258                       # Simulator instruction rate (inst/s)
host_mem_usage                                 721924                       # Number of bytes of host memory used
host_op_rate                                   275807                       # Simulator op (including micro ops) rate (op/s)
host_seconds                                   363.30                       # Real time elapsed on the host
host_tick_rate                              228672767                       # Simulator tick rate (ticks/s)
sim_freq                                 1000000000000                       # Frequency of simulated ticks
sim_insts                                   100000000                       # Number of instructions simulated
sim_ops                                     100199496                       # Number of ops (including micro ops) simulated
sim_seconds                                  0.083076                       # Number of seconds simulated
sim_ticks                                 83075823000                       # Number of ticks simulated
system.cpu.committedInsts                   100000000                       # Number of instructions committed
system.cpu.committedOps                     100199496                       # Number of ops (including micro ops) committed
system.cpu.cpi                               1.661516                       # CPI: cycles per instruction
system.cpu.discardedOps                        197425                       # Number of ops (including micro ops) which were discarded before commit
system.cpu.idleCycles                        33431975                       # Total number of cycles that the object has spent stopped
system.cpu.ipc                               0.601860                       # IPC: instructions per cycle
system.cpu.numCycles                        166151646                       # number of cpu cycles simulated
system.cpu.numFetchSuspends                         0                       # Number of times Execute suspended instruction fetching
system.cpu.numWorkItemsCompleted                    0                       # number of work items this cpu completed
system.cpu.numWorkItemsStarted                      0                       # number of work items this cpu started
system.cpu.op_class_0::No_OpClass                   0      0.00%      0.00% # Class of committed instruction
system.cpu.op_class_0::IntAlu                46438739     46.35%     46.35% # Class of committed instruction
system.cpu.op_class_0::IntMult                  20720      0.02%     46.37% # Class of committed instruction
system.cpu.op_class_0::IntDiv                       0      0.00%     46.37% # Class of committed instruction
system.cpu.op_class_0::FloatAdd                     0      0.00%     46.37% # Class of committed instruction
system.cpu.op_class_0::FloatCmp                     0      0.00%     46.37% # Class of committed instruction
system.cpu.op_class_0::FloatCvt                     0      0.00%     46.37% # Class of committed instruction
system.cpu.op_class_0::FloatMult                    0      0.00%     46.37% # Class of committed instruction
system.cpu.op_class_0::FloatMultAcc                 0      0.00%     46.37% # Class of committed instruction
system.cpu.op_class_0::FloatDiv                     0      0.00%     46.37% # Class of committed instruction
system.cpu.op_class_0::FloatMisc                    0      0.00%     46.37% # Class of committed instruction
system.cpu.op_class_0::FloatSqrt                    0      0.00%     46.37% # Class of committed instruction
system.cpu.op_class_0::SimdAdd                      0      0.00%     46.37% # Class of committed instruction
system.cpu.op_class_0::SimdAddAcc                   0      0.00%     46.37% # Class of committed instruction
system.cpu.op_class_0::SimdAlu                      0      0.00%     46.37% # Class of committed instruction
system.cpu.op_class_0::SimdCmp                      0      0.00%     46.37% # Class of committed instruction
system.cpu.op_class_0::SimdCvt                      0      0.00%     46.37% # Class of committed instruction
system.cpu.op_class_0::SimdMisc                     0      0.00%     46.37% # Class of committed instruction
system.cpu.op_class_0::SimdMult                     0      0.00%     46.37% # Class of committed instruction
system.cpu.op_class_0::SimdMultAcc                  0      0.00%     46.37% # Class of committed instruction
system.cpu.op_class_0::SimdShift                    0      0.00%     46.37% # Class of committed instruction
system.cpu.op_class_0::SimdShiftAcc                 0      0.00%     46.37% # Class of committed instruction
system.cpu.op_class_0::SimdDiv                      0      0.00%     46.37% # Class of committed instruction
system.cpu.op_class_0::SimdSqrt                     0      0.00%     46.37% # Class of committed instruction
system.cpu.op_class_0::SimdFloatAdd                 0      0.00%     46.37% # Class of committed instruction
system.cpu.op_class_0::SimdFloatAlu                 0      0.00%     46.37% # Class of committed instruction
system.cpu.op_class_0::SimdFloatCmp                 0      0.00%     46.37% # Class of committed instruction
system.cpu.op_class_0::SimdFloatCvt                 0      0.00%     46.37% # Class of committed instruction
system.cpu.op_class_0::SimdFloatDiv                 0      0.00%     46.37% # Class of committed instruction
system.cpu.op_class_0::SimdFloatMisc                1      0.00%     46.37% # Class of committed instruction
system.cpu.op_class_0::SimdFloatMult                0      0.00%     46.37% # Class of committed instruction
system.cpu.op_class_0::SimdFloatMultAcc             0      0.00%     46.37% # Class of committed instruction
system.cpu.op_class_0::SimdFloatSqrt                0      0.00%     46.37% # Class of committed instruction
system.cpu.op_class_0::SimdReduceAdd                0      0.00%     46.37% # Class of committed instruction
system.cpu.op_class_0::SimdReduceAlu                0      0.00%     46.37% # Class of committed instruction
system.cpu.op_class_0::SimdReduceCmp                0      0.00%     46.37% # Class of committed instruction
system.cpu.op_class_0::SimdFloatReduceAdd            0      0.00%     46.37% # Class of committed instruction
system.cpu.op_class_0::SimdFloatReduceCmp            0      0.00%     46.37% # Class of committed instruction
system.cpu.op_class_0::SimdAes                      0      0.00%     46.37% # Class of committed instruction
system.cpu.op_class_0::SimdAesMix                   0      0.00%     46.37% # Class of committed instruction
system.cpu.op_class_0::SimdSha1Hash                 0      0.00%     46.37% # Class of committed instruction
system.cpu.op_class_0::SimdSha1Hash2                0      0.00%     46.37% # Class of committed instruction
system.cpu.op_class_0::SimdSha256Hash               0      0.00%     46.37% # Class of committed instruction
system.cpu.op_class_0::SimdSha256Hash2              0      0.00%     46.37% # Class of committed instruction
system.cpu.op_class_0::SimdShaSigma2                0      0.00%     46.37% # Class of committed instruction
system.cpu.op_class_0::SimdShaSigma3                0      0.00%     46.37% # Class of committed instruction
system.cpu.op_class_0::SimdPredAlu                  0      0.00%     46.37% # Class of committed instruction
system.cpu.op_class_0::MemRead               42753845     42.67%     89.04% # Class of committed instruction
system.cpu.op_class_0::MemWrite              10986191     10.96%    100.00% # Class of committed instruction
system.cpu.op_class_0::FloatMemRead                 0      0.00%    100.00% # Class of committed instruction
system.cpu.op_class_0::FloatMemWrite                0      0.00%    100.00% # Class of committed instruction
system.cpu.op_class_0::IprAccess                    0      0.00%    100.00% # Class of committed instruction
system.cpu.op_class_0::InstPrefetch                 0      0.00%    100.00% # Class of committed instruction
system.cpu.op_class_0::total                100199496                       # Class of committed instruction
system.cpu.tickCycles                       132719671                       # Number of cycles that the object actually ticked
system.cpu.workload.numSyscalls                    85                       # Number of system calls
system.membus.snoop_filter.hit_multi_requests            0                       # Number of requests hitting in the snoop filter with multiple (>1) holders of the requested data.
system.membus.snoop_filter.hit_multi_snoops            0                       # Number of snoops hitting in the snoop filter with multiple (>1) holders of the requested data.
system.membus.snoop_filter.hit_single_requests       107087                       # Number of requests hitting in the snoop filter with a single holder of the requested data.
system.membus.snoop_filter.hit_single_snoops            0                       # Number of snoops hitting in the snoop filter with a single holder of the requested data.
system.membus.snoop_filter.tot_requests        230743                       # Total number of requests made to the snoop filter.
system.membus.snoop_filter.tot_snoops               0                       # Total number of snoops made to the snoop filter.
system.tol2bus.snoop_filter.hit_multi_requests          217                       # Number of requests hitting in the snoop filter with multiple (>1) holders of the requested data.
system.tol2bus.snoop_filter.hit_multi_snoops            1                       # Number of snoops hitting in the snoop filter with multiple (>1) holders of the requested data.
system.tol2bus.snoop_filter.hit_single_requests       677971                       # Number of requests hitting in the snoop filter with a single holder of the requested data.
system.tol2bus.snoop_filter.hit_single_snoops          315                       # Number of snoops hitting in the snoop filter with a single holder of the requested data.
system.tol2bus.snoop_filter.tot_requests      1356691                       # Total number of requests made to the snoop filter.
system.tol2bus.snoop_filter.tot_snoops            316                       # Total number of snoops made to the snoop filter.
system.clk_domain.clock                          1000                       # Clock period in ticks
system.cpu.branchPred.lookups                 4397819                       # Number of BP lookups
system.cpu.branchPred.condPredicted           3642921                       # Number of conditional branches predicted
system.cpu.branchPred.condIncorrect             83173                       # Number of conditional branches incorrect
system.cpu.branchPred.BTBLookups              2113217                       # Number of BTB lookups
system.cpu.branchPred.BTBHits                 2110926                       # Number of BTB hits
system.cpu.branchPred.BTBHitPct             99.891587                       # BTB Hit Percentage
system.cpu.branchPred.RASUsed                   66058                       # Number of times the RAS was used to get a target.
system.cpu.branchPred.RASIncorrect                 14                       # Number of incorrect RAS predictions.
system.cpu.branchPred.indirectLookups             688                       # Number of indirect predictor lookups.
system.cpu.branchPred.indirectHits                295                       # Number of indirect target hits.
system.cpu.branchPred.indirectMisses              393                       # Number of indirect misses.
system.cpu.branchPred.indirectMispredicted          164                       # Number of mispredicted indirect branches.
system.cpu.dcache.demand_hits::.cpu.data     51426578                       # number of demand (read+write) hits
system.cpu.dcache.demand_hits::total         51426578                       # number of demand (read+write) hits
system.cpu.dcache.overall_hits::.cpu.data     51427172                       # number of overall hits
system.cpu.dcache.overall_hits::total        51427172                       # number of overall hits
system.cpu.dcache.demand_misses::.cpu.data       709697                       # number of demand (read+write) misses
system.cpu.dcache.demand_misses::total         709697                       # number of demand (read+write) misses
system.cpu.dcache.overall_misses::.cpu.data       717522                       # number of overall misses
system.cpu.dcache.overall_misses::total        717522                       # number of overall misses
system.cpu.dcache.demand_miss_latency::.cpu.data  20879383000                       # number of demand (read+write) miss cycles
system.cpu.dcache.demand_miss_latency::total  20879383000                       # number of demand (read+write) miss cycles
system.cpu.dcache.overall_miss_latency::.cpu.data  20879383000                       # number of overall miss cycles
system.cpu.dcache.overall_miss_latency::total  20879383000                       # number of overall miss cycles
system.cpu.dcache.demand_accesses::.cpu.data     52136275                       # number of demand (read+write) accesses
system.cpu.dcache.demand_accesses::total     52136275                       # number of demand (read+write) accesses
system.cpu.dcache.overall_accesses::.cpu.data     52144694                       # number of overall (read+write) accesses
system.cpu.dcache.overall_accesses::total     52144694                       # number of overall (read+write) accesses
system.cpu.dcache.demand_miss_rate::.cpu.data     0.013612                       # miss rate for demand accesses
system.cpu.dcache.demand_miss_rate::total     0.013612                       # miss rate for demand accesses
system.cpu.dcache.overall_miss_rate::.cpu.data     0.013760                       # miss rate for overall accesses
system.cpu.dcache.overall_miss_rate::total     0.013760                       # miss rate for overall accesses
system.cpu.dcache.demand_avg_miss_latency::.cpu.data 29420.137044                       # average overall miss latency
system.cpu.dcache.demand_avg_miss_latency::total 29420.137044                       # average overall miss latency
system.cpu.dcache.overall_avg_miss_latency::.cpu.data 29099.293123                       # average overall miss latency
system.cpu.dcache.overall_avg_miss_latency::total 29099.293123                       # average overall miss latency
system.cpu.dcache.blocked_cycles::no_mshrs            0                       # number of cycles access was blocked
system.cpu.dcache.blocked_cycles::no_targets            0                       # number of cycles access was blocked
system.cpu.dcache.blocked::no_mshrs                 0                       # number of cycles access was blocked
system.cpu.dcache.blocked::no_targets               0                       # number of cycles access was blocked
system.cpu.dcache.avg_blocked_cycles::no_mshrs          nan                       # average number of cycles each access was blocked
system.cpu.dcache.avg_blocked_cycles::no_targets          nan                       # average number of cycles each access was blocked
system.cpu.dcache.writebacks::.writebacks       626861                       # number of writebacks
system.cpu.dcache.writebacks::total            626861                       # number of writebacks
system.cpu.dcache.demand_mshr_hits::.cpu.data        35473                       # number of demand (read+write) MSHR hits
system.cpu.dcache.demand_mshr_hits::total        35473                       # number of demand (read+write) MSHR hits
system.cpu.dcache.overall_mshr_hits::.cpu.data        35473                       # number of overall MSHR hits
system.cpu.dcache.overall_mshr_hits::total        35473                       # number of overall MSHR hits
system.cpu.dcache.demand_mshr_misses::.cpu.data       674224                       # number of demand (read+write) MSHR misses
system.cpu.dcache.demand_mshr_misses::total       674224                       # number of demand (read+write) MSHR misses
system.cpu.dcache.overall_mshr_misses::.cpu.data       678180                       # number of overall MSHR misses
system.cpu.dcache.overall_mshr_misses::total       678180                       # number of overall MSHR misses
system.cpu.dcache.demand_mshr_miss_latency::.cpu.data  17758233000                       # number of demand (read+write) MSHR miss cycles
system.cpu.dcache.demand_mshr_miss_latency::total  17758233000                       # number of demand (read+write) MSHR miss cycles
system.cpu.dcache.overall_mshr_miss_latency::.cpu.data  18103340500                       # number of overall MSHR miss cycles
system.cpu.dcache.overall_mshr_miss_latency::total  18103340500                       # number of overall MSHR miss cycles
system.cpu.dcache.demand_mshr_miss_rate::.cpu.data     0.012932                       # mshr miss rate for demand accesses
system.cpu.dcache.demand_mshr_miss_rate::total     0.012932                       # mshr miss rate for demand accesses
system.cpu.dcache.overall_mshr_miss_rate::.cpu.data     0.013006                       # mshr miss rate for overall accesses
system.cpu.dcache.overall_mshr_miss_rate::total     0.013006                       # mshr miss rate for overall accesses
system.cpu.dcache.demand_avg_mshr_miss_latency::.cpu.data 26338.773167                       # average overall mshr miss latency
system.cpu.dcache.demand_avg_mshr_miss_latency::total 26338.773167                       # average overall mshr miss latency
system.cpu.dcache.overall_avg_mshr_miss_latency::.cpu.data 26694.005279                       # average overall mshr miss latency
system.cpu.dcache.overall_avg_mshr_miss_latency::total 26694.005279                       # average overall mshr miss latency
system.cpu.dcache.replacements                 677667                       # number of replacements
system.cpu.dcache.ReadReq_hits::.cpu.data     40772723                       # number of ReadReq hits
system.cpu.dcache.ReadReq_hits::total        40772723                       # number of ReadReq hits
system.cpu.dcache.ReadReq_misses::.cpu.data       386505                       # number of ReadReq misses
system.cpu.dcache.ReadReq_misses::total        386505                       # number of ReadReq misses
system.cpu.dcache.ReadReq_miss_latency::.cpu.data   7785819000                       # number of ReadReq miss cycles
system.cpu.dcache.ReadReq_miss_latency::total   7785819000                       # number of ReadReq miss cycles
system.cpu.dcache.ReadReq_accesses::.cpu.data     41159228                       # number of ReadReq accesses(hits+misses)
system.cpu.dcache.ReadReq_accesses::total     41159228                       # number of ReadReq accesses(hits+misses)
system.cpu.dcache.ReadReq_miss_rate::.cpu.data     0.009390                       # miss rate for ReadReq accesses
system.cpu.dcache.ReadReq_miss_rate::total     0.009390                       # miss rate for ReadReq accesses
system.cpu.dcache.ReadReq_avg_miss_latency::.cpu.data 20144.161136                       # average ReadReq miss latency
system.cpu.dcache.ReadReq_avg_miss_latency::total 20144.161136                       # average ReadReq miss latency
system.cpu.dcache.ReadReq_mshr_hits::.cpu.data         2614                       # number of ReadReq MSHR hits
system.cpu.dcache.ReadReq_mshr_hits::total         2614                       # number of ReadReq MSHR hits
system.cpu.dcache.ReadReq_mshr_misses::.cpu.data       383891                       # number of ReadReq MSHR misses
system.cpu.dcache.ReadReq_mshr_misses::total       383891                       # number of ReadReq MSHR misses
system.cpu.dcache.ReadReq_mshr_miss_latency::.cpu.data   7250789000                       # number of ReadReq MSHR miss cycles
system.cpu.dcache.ReadReq_mshr_miss_latency::total   7250789000                       # number of ReadReq MSHR miss cycles
system.cpu.dcache.ReadReq_mshr_miss_rate::.cpu.data     0.009327                       # mshr miss rate for ReadReq accesses
system.cpu.dcache.ReadReq_mshr_miss_rate::total     0.009327                       # mshr miss rate for ReadReq accesses
system.cpu.dcache.ReadReq_avg_mshr_miss_latency::.cpu.data 18887.624352                       # average ReadReq mshr miss latency
system.cpu.dcache.ReadReq_avg_mshr_miss_latency::total 18887.624352                       # average ReadReq mshr miss latency
system.cpu.dcache.WriteReq_hits::.cpu.data     10653855                       # number of WriteReq hits
system.cpu.dcache.WriteReq_hits::total       10653855                       # number of WriteReq hits
system.cpu.dcache.WriteReq_misses::.cpu.data       323192                       # number of WriteReq misses
system.cpu.dcache.WriteReq_misses::total       323192                       # number of WriteReq misses
system.cpu.dcache.WriteReq_miss_latency::.cpu.data  13093564000                       # number of WriteReq miss cycles
system.cpu.dcache.WriteReq_miss_latency::total  13093564000                       # number of WriteReq miss cycles
system.cpu.dcache.WriteReq_accesses::.cpu.data     10977047                       # number of WriteReq accesses(hits+misses)
system.cpu.dcache.WriteReq_accesses::total     10977047                       # number of WriteReq accesses(hits+misses)
system.cpu.dcache.WriteReq_miss_rate::.cpu.data     0.029443                       # miss rate for WriteReq accesses
system.cpu.dcache.WriteReq_miss_rate::total     0.029443                       # miss rate for WriteReq accesses
system.cpu.dcache.WriteReq_avg_miss_latency::.cpu.data 40513.267655                       # average WriteReq miss latency
system.cpu.dcache.WriteReq_avg_miss_latency::total 40513.267655                       # average WriteReq miss latency
system.cpu.dcache.WriteReq_mshr_hits::.cpu.data        32859                       # number of WriteReq MSHR hits
system.cpu.dcache.WriteReq_mshr_hits::total        32859                       # number of WriteReq MSHR hits
system.cpu.dcache.WriteReq_mshr_misses::.cpu.data       290333                       # number of WriteReq MSHR misses
system.cpu.dcache.WriteReq_mshr_misses::total       290333                       # number of WriteReq MSHR misses
system.cpu.dcache.WriteReq_mshr_miss_latency::.cpu.data  10507444000                       # number of WriteReq MSHR miss cycles
system.cpu.dcache.WriteReq_mshr_miss_latency::total  10507444000                       # number of WriteReq MSHR miss cycles
system.cpu.dcache.WriteReq_mshr_miss_rate::.cpu.data     0.026449                       # mshr miss rate for WriteReq accesses
system.cpu.dcache.WriteReq_mshr_miss_rate::total     0.026449                       # mshr miss rate for WriteReq accesses
system.cpu.dcache.WriteReq_avg_mshr_miss_latency::.cpu.data 36191.008256                       # average WriteReq mshr miss latency
system.cpu.dcache.WriteReq_avg_mshr_miss_latency::total 36191.008256                       # average WriteReq mshr miss latency
system.cpu.dcache.SoftPFReq_hits::.cpu.data          594                       # number of SoftPFReq hits
system.cpu.dcache.SoftPFReq_hits::total           594                       # number of SoftPFReq hits
system.cpu.dcache.SoftPFReq_misses::.cpu.data         7825                       # number of SoftPFReq misses
system.cpu.dcache.SoftPFReq_misses::total         7825                       # number of SoftPFReq misses
system.cpu.dcache.SoftPFReq_accesses::.cpu.data         8419                       # number of SoftPFReq accesses(hits+misses)
system.cpu.dcache.SoftPFReq_accesses::total         8419                       # number of SoftPFReq accesses(hits+misses)
system.cpu.dcache.SoftPFReq_miss_rate::.cpu.data     0.929445                       # miss rate for SoftPFReq accesses
system.cpu.dcache.SoftPFReq_miss_rate::total     0.929445                       # miss rate for SoftPFReq accesses
system.cpu.dcache.SoftPFReq_mshr_misses::.cpu.data         3956                       # number of SoftPFReq MSHR misses
system.cpu.dcache.SoftPFReq_mshr_misses::total         3956                       # number of SoftPFReq MSHR misses
system.cpu.dcache.SoftPFReq_mshr_miss_latency::.cpu.data    345107500                       # number of SoftPFReq MSHR miss cycles
system.cpu.dcache.SoftPFReq_mshr_miss_latency::total    345107500                       # number of SoftPFReq MSHR miss cycles
system.cpu.dcache.SoftPFReq_mshr_miss_rate::.cpu.data     0.469890                       # mshr miss rate for SoftPFReq accesses
system.cpu.dcache.SoftPFReq_mshr_miss_rate::total     0.469890                       # mshr miss rate for SoftPFReq accesses
system.cpu.dcache.SoftPFReq_avg_mshr_miss_latency::.cpu.data 87236.476239                       # average SoftPFReq mshr miss latency
system.cpu.dcache.SoftPFReq_avg_mshr_miss_latency::total 87236.476239                       # average SoftPFReq mshr miss latency
system.cpu.dcache.LoadLockedReq_hits::.cpu.data           38                       # number of LoadLockedReq hits
system.cpu.dcache.LoadLockedReq_hits::total           38                       # number of LoadLockedReq hits
system.cpu.dcache.LoadLockedReq_accesses::.cpu.data           38                       # number of LoadLockedReq accesses(hits+misses)
system.cpu.dcache.LoadLockedReq_accesses::total           38                       # number of LoadLockedReq accesses(hits+misses)
system.cpu.dcache.StoreCondReq_hits::.cpu.data           38                       # number of StoreCondReq hits
system.cpu.dcache.StoreCondReq_hits::total           38                       # number of StoreCondReq hits
system.cpu.dcache.StoreCondReq_accesses::.cpu.data           38                       # number of StoreCondReq accesses(hits+misses)
system.cpu.dcache.StoreCondReq_accesses::total           38                       # number of StoreCondReq accesses(hits+misses)
system.cpu.dcache.power_state.pwrStateResidencyTicks::UNDEFINED  83075823000                       # Cumulative time (in ticks) in various power states
system.cpu.dcache.tags.tagsinuse           504.068619                       # Cycle average of tags in use
system.cpu.dcache.tags.total_refs            52105427                       # Total number of references to valid blocks.
system.cpu.dcache.tags.sampled_refs            678179                       # Sample count of references to valid blocks.
system.cpu.dcache.tags.avg_refs             76.831378                       # Average number of references to valid blocks.
system.cpu.dcache.tags.warmup_cycle            186500                       # Cycle when the warmup percentage was hit.
system.cpu.dcache.tags.occ_blocks::.cpu.data   504.068619                       # Average occupied blocks per requestor
system.cpu.dcache.tags.occ_percent::.cpu.data     0.984509                       # Average percentage of cache occupancy
system.cpu.dcache.tags.occ_percent::total     0.984509                       # Average percentage of cache occupancy
system.cpu.dcache.tags.occ_task_id_blocks::1024          512                       # Occupied blocks per task id
system.cpu.dcache.tags.age_task_id_blocks_1024::0          189                       # Occupied blocks per task id
system.cpu.dcache.tags.age_task_id_blocks_1024::1          183                       # Occupied blocks per task id
system.cpu.dcache.tags.age_task_id_blocks_1024::2          139                       # Occupied blocks per task id
system.cpu.dcache.tags.age_task_id_blocks_1024::3            1                       # Occupied blocks per task id
system.cpu.dcache.tags.occ_task_id_percent::1024            1                       # Percentage of cache occupancy per task id
system.cpu.dcache.tags.tag_accesses         104967719                       # Number of tag accesses
system.cpu.dcache.tags.data_accesses        104967719                       # Number of data accesses
system.cpu.dcache.tags.power_state.pwrStateResidencyTicks::UNDEFINED  83075823000                       # Cumulative time (in ticks) in various power states
system.cpu.dtb.instHits                             0                       # ITB inst hits
system.cpu.dtb.instMisses                           0                       # ITB inst misses
system.cpu.dtb.readHits                             0                       # DTB read hits
system.cpu.dtb.readMisses                           0                       # DTB read misses
system.cpu.dtb.writeHits                            0                       # DTB write hits
system.cpu.dtb.writeMisses                          0                       # DTB write misses
system.cpu.dtb.inserts                              0                       # Number of times an entry is inserted into the TLB
system.cpu.dtb.flushTlb                             0                       # Number of times complete TLB was flushed
system.cpu.dtb.flushTlbMva                          0                       # Number of times TLB was flushed by MVA
system.cpu.dtb.flushTlbMvaAsid                      0                       # Number of times TLB was flushed by MVA & ASID
system.cpu.dtb.flushTlbAsid                         0                       # Number of times TLB was flushed by ASID
system.cpu.dtb.flushedEntries                       0                       # Number of entries that have been flushed from TLB
system.cpu.dtb.alignFaults                          0                       # Number of TLB faults due to alignment restrictions
system.cpu.dtb.prefetchFaults                       0                       # Number of TLB faults due to prefetch
system.cpu.dtb.domainFaults                         0                       # Number of TLB faults due to domain restrictions
system.cpu.dtb.permsFaults                          0                       # Number of TLB faults due to permissions restrictions
system.cpu.dtb.readAccesses                         0                       # DTB read accesses
system.cpu.dtb.writeAccesses                        0                       # DTB write accesses
system.cpu.dtb.instAccesses                         0                       # ITB inst accesses
system.cpu.dtb.hits                                 0                       # Total TLB (inst and data) hits
system.cpu.dtb.misses                               0                       # Total TLB (inst and data) misses
system.cpu.dtb.accesses                             0                       # Total TLB (inst and data) accesses
system.cpu.dtb.stage2_mmu.stage2_tlb.instHits            0                       # ITB inst hits
system.cpu.dtb.stage2_mmu.stage2_tlb.instMisses            0                       # ITB inst misses
system.cpu.dtb.stage2_mmu.stage2_tlb.readHits            0                       # DTB read hits
system.cpu.dtb.stage2_mmu.stage2_tlb.readMisses            0                       # DTB read misses
system.cpu.dtb.stage2_mmu.stage2_tlb.writeHits            0                       # DTB write hits
system.cpu.dtb.stage2_mmu.stage2_tlb.writeMisses            0                       # DTB write misses
system.cpu.dtb.stage2_mmu.stage2_tlb.inserts            0                       # Number of times an entry is inserted into the TLB
system.cpu.dtb.stage2_mmu.stage2_tlb.flushTlb            0                       # Number of times complete TLB was flushed
system.cpu.dtb.stage2_mmu.stage2_tlb.flushTlbMva            0                       # Number of times TLB was flushed by MVA
system.cpu.dtb.stage2_mmu.stage2_tlb.flushTlbMvaAsid            0                       # Number of times TLB was flushed by MVA & ASID
system.cpu.dtb.stage2_mmu.stage2_tlb.flushTlbAsid            0                       # Number of times TLB was flushed by ASID
system.cpu.dtb.stage2_mmu.stage2_tlb.flushedEntries            0                       # Number of entries that have been flushed from TLB
system.cpu.dtb.stage2_mmu.stage2_tlb.alignFaults            0                       # Number of TLB faults due to alignment restrictions
system.cpu.dtb.stage2_mmu.stage2_tlb.prefetchFaults            0                       # Number of TLB faults due to prefetch
system.cpu.dtb.stage2_mmu.stage2_tlb.domainFaults            0                       # Number of TLB faults due to domain restrictions
system.cpu.dtb.stage2_mmu.stage2_tlb.permsFaults            0                       # Number of TLB faults due to permissions restrictions
system.cpu.dtb.stage2_mmu.stage2_tlb.readAccesses            0                       # DTB read accesses
system.cpu.dtb.stage2_mmu.stage2_tlb.writeAccesses            0                       # DTB write accesses
system.cpu.dtb.stage2_mmu.stage2_tlb.instAccesses            0                       # ITB inst accesses
system.cpu.dtb.stage2_mmu.stage2_tlb.hits            0                       # Total TLB (inst and data) hits
system.cpu.dtb.stage2_mmu.stage2_tlb.misses            0                       # Total TLB (inst and data) misses
system.cpu.dtb.stage2_mmu.stage2_tlb.accesses            0                       # Total TLB (inst and data) accesses
system.cpu.dtb.stage2_mmu.stage2_tlb.walker.walks            0                       # Table walker walks requested
system.cpu.dtb.stage2_mmu.stage2_tlb.walker.requestOrigin_Requested::Data            0                       # Table walker requests started/completed, data/inst
system.cpu.dtb.stage2_mmu.stage2_tlb.walker.requestOrigin_Requested::Inst            0                       # Table walker requests started/completed, data/inst
system.cpu.dtb.stage2_mmu.stage2_tlb.walker.requestOrigin_Requested::total            0                       # Table walker requests started/completed, data/inst
system.cpu.dtb.stage2_mmu.stage2_tlb.walker.requestOrigin_Completed::Data            0                       # Table walker requests started/completed, data/inst
system.cpu.dtb.stage2_mmu.stage2_tlb.walker.requestOrigin_Completed::Inst            0                       # Table walker requests started/completed, data/inst
system.cpu.dtb.stage2_mmu.stage2_tlb.walker.requestOrigin_Completed::total            0                       # Table walker requests started/completed, data/inst
system.cpu.dtb.stage2_mmu.stage2_tlb.walker.requestOrigin::total            0                       # Table walker requests started/completed, data/inst
system.cpu.dtb.stage2_mmu.stage2_tlb.walker.power_state.pwrStateResidencyTicks::UNDEFINED  83075823000                       # Cumulative time (in ticks) in various power states
system.cpu.dtb.walker.walks                         0                       # Table walker walks requested
system.cpu.dtb.walker.requestOrigin_Requested::Data            0                       # Table walker requests started/completed, data/inst
system.cpu.dtb.walker.requestOrigin_Requested::Inst            0                       # Table walker requests started/completed, data/inst
system.cpu.dtb.walker.requestOrigin_Requested::total            0                       # Table walker requests started/completed, data/inst
system.cpu.dtb.walker.requestOrigin_Completed::Data            0                       # Table walker requests started/completed, data/inst
system.cpu.dtb.walker.requestOrigin_Completed::Inst            0                       # Table walker requests started/completed, data/inst
system.cpu.dtb.walker.requestOrigin_Completed::total            0                       # Table walker requests started/completed, data/inst
system.cpu.dtb.walker.requestOrigin::total            0                       # Table walker requests started/completed, data/inst
system.cpu.dtb.walker.power_state.pwrStateResidencyTicks::UNDEFINED  83075823000                       # Cumulative time (in ticks) in various power states
system.cpu.fetch2.intInstructions            42704474                       # Number of integer instructions successfully decoded
system.cpu.fetch2.fpInstructions                    0                       # Number of floating point instructions successfully decoded
system.cpu.fetch2.vecInstructions                   0                       # Number of SIMD instructions successfully decoded
system.cpu.fetch2.loadInstructions           43555678                       # Number of memory load instructions successfully decoded
system.cpu.fetch2.storeInstructions          11057567                       # Number of memory store instructions successfully decoded
system.cpu.fetch2.amoInstructions                   0                       # Number of memory atomic instructions successfully decoded
system.cpu.icache.demand_hits::.cpu.inst      8729772                       # number of demand (read+write) hits
system.cpu.icache.demand_hits::total          8729772                       # number of demand (read+write) hits
system.cpu.icache.overall_hits::.cpu.inst      8729772                       # number of overall hits
system.cpu.icache.overall_hits::total         8729772                       # number of overall hits
system.cpu.icache.demand_misses::.cpu.inst          540                       # number of demand (read+write) misses
system.cpu.icache.demand_misses::total            540                       # number of demand (read+write) misses
system.cpu.icache.overall_misses::.cpu.inst          540                       # number of overall misses
system.cpu.icache.overall_misses::total           540                       # number of overall misses
system.cpu.icache.demand_miss_latency::.cpu.inst     39204000                       # number of demand (read+write) miss cycles
system.cpu.icache.demand_miss_latency::total     39204000                       # number of demand (read+write) miss cycles
system.cpu.icache.overall_miss_latency::.cpu.inst     39204000                       # number of overall miss cycles
system.cpu.icache.overall_miss_latency::total     39204000                       # number of overall miss cycles
system.cpu.icache.demand_accesses::.cpu.inst      8730312                       # number of demand (read+write) accesses
system.cpu.icache.demand_accesses::total      8730312                       # number of demand (read+write) accesses
system.cpu.icache.overall_accesses::.cpu.inst      8730312                       # number of overall (read+write) accesses
system.cpu.icache.overall_accesses::total      8730312                       # number of overall (read+write) accesses
system.cpu.icache.demand_miss_rate::.cpu.inst     0.000062                       # miss rate for demand accesses
system.cpu.icache.demand_miss_rate::total     0.000062                       # miss rate for demand accesses
system.cpu.icache.overall_miss_rate::.cpu.inst     0.000062                       # miss rate for overall accesses
system.cpu.icache.overall_miss_rate::total     0.000062                       # miss rate for overall accesses
system.cpu.icache.demand_avg_miss_latency::.cpu.inst        72600                       # average overall miss latency
system.cpu.icache.demand_avg_miss_latency::total        72600                       # average overall miss latency
system.cpu.icache.overall_avg_miss_latency::.cpu.inst        72600                       # average overall miss latency
system.cpu.icache.overall_avg_miss_latency::total        72600                       # average overall miss latency
system.cpu.icache.blocked_cycles::no_mshrs            0                       # number of cycles access was blocked
system.cpu.icache.blocked_cycles::no_targets            0                       # number of cycles access was blocked
system.cpu.icache.blocked::no_mshrs                 0                       # number of cycles access was blocked
system.cpu.icache.blocked::no_targets               0                       # number of cycles access was blocked
system.cpu.icache.avg_blocked_cycles::no_mshrs          nan                       # average number of cycles each access was blocked
system.cpu.icache.avg_blocked_cycles::no_targets          nan                       # average number of cycles each access was blocked
system.cpu.icache.writebacks::.writebacks          304                       # number of writebacks
system.cpu.icache.writebacks::total               304                       # number of writebacks
system.cpu.icache.demand_mshr_misses::.cpu.inst          540                       # number of demand (read+write) MSHR misses
system.cpu.icache.demand_mshr_misses::total          540                       # number of demand (read+write) MSHR misses
system.cpu.icache.overall_mshr_misses::.cpu.inst          540                       # number of overall MSHR misses
system.cpu.icache.overall_mshr_misses::total          540                       # number of overall MSHR misses
system.cpu.icache.demand_mshr_miss_latency::.cpu.inst     38664000                       # number of demand (read+write) MSHR miss cycles
system.cpu.icache.demand_mshr_miss_latency::total     38664000                       # number of demand (read+write) MSHR miss cycles
system.cpu.icache.overall_mshr_miss_latency::.cpu.inst     38664000                       # number of overall MSHR miss cycles
system.cpu.icache.overall_mshr_miss_latency::total     38664000                       # number of overall MSHR miss cycles
system.cpu.icache.demand_mshr_miss_rate::.cpu.inst     0.000062                       # mshr miss rate for demand accesses
system.cpu.icache.demand_mshr_miss_rate::total     0.000062                       # mshr miss rate for demand accesses
system.cpu.icache.overall_mshr_miss_rate::.cpu.inst     0.000062                       # mshr miss rate for overall accesses
system.cpu.icache.overall_mshr_miss_rate::total     0.000062                       # mshr miss rate for overall accesses
system.cpu.icache.demand_avg_mshr_miss_latency::.cpu.inst        71600                       # average overall mshr miss latency
system.cpu.icache.demand_avg_mshr_miss_latency::total        71600                       # average overall mshr miss latency
system.cpu.icache.overall_avg_mshr_miss_latency::.cpu.inst        71600                       # average overall mshr miss latency
system.cpu.icache.overall_avg_mshr_miss_latency::total        71600                       # average overall mshr miss latency
system.cpu.icache.replacements                    304                       # number of replacements
system.cpu.icache.ReadReq_hits::.cpu.inst      8729772                       # number of ReadReq hits
system.cpu.icache.ReadReq_hits::total         8729772                       # number of ReadReq hits
system.cpu.icache.ReadReq_misses::.cpu.inst          540                       # number of ReadReq misses
system.cpu.icache.ReadReq_misses::total           540                       # number of ReadReq misses
system.cpu.icache.ReadReq_miss_latency::.cpu.inst     39204000                       # number of ReadReq miss cycles
system.cpu.icache.ReadReq_miss_latency::total     39204000                       # number of ReadReq miss cycles
system.cpu.icache.ReadReq_accesses::.cpu.inst      8730312                       # number of ReadReq accesses(hits+misses)
system.cpu.icache.ReadReq_accesses::total      8730312                       # number of ReadReq accesses(hits+misses)
system.cpu.icache.ReadReq_miss_rate::.cpu.inst     0.000062                       # miss rate for ReadReq accesses
system.cpu.icache.ReadReq_miss_rate::total     0.000062                       # miss rate for ReadReq accesses
system.cpu.icache.ReadReq_avg_miss_latency::.cpu.inst        72600                       # average ReadReq miss latency
system.cpu.icache.ReadReq_avg_miss_latency::total        72600                       # average ReadReq miss latency
system.cpu.icache.ReadReq_mshr_misses::.cpu.inst          540                       # number of ReadReq MSHR misses
system.cpu.icache.ReadReq_mshr_misses::total          540                       # number of ReadReq MSHR misses
system.cpu.icache.ReadReq_mshr_miss_latency::.cpu.inst     38664000                       # number of ReadReq MSHR miss cycles
system.cpu.icache.ReadReq_mshr_miss_latency::total     38664000                       # number of ReadReq MSHR miss cycles
system.cpu.icache.ReadReq_mshr_miss_rate::.cpu.inst     0.000062                       # mshr miss rate for ReadReq accesses
system.cpu.icache.ReadReq_mshr_miss_rate::total     0.000062                       # mshr miss rate for ReadReq accesses
system.cpu.icache.ReadReq_avg_mshr_miss_latency::.cpu.inst        71600                       # average ReadReq mshr miss latency
system.cpu.icache.ReadReq_avg_mshr_miss_latency::total        71600                       # average ReadReq mshr miss latency
system.cpu.icache.power_state.pwrStateResidencyTicks::UNDEFINED  83075823000                       # Cumulative time (in ticks) in various power states
system.cpu.icache.tags.tagsinuse           206.079784                       # Cycle average of tags in use
system.cpu.icache.tags.total_refs             8730312                       # Total number of references to valid blocks.
system.cpu.icache.tags.sampled_refs               540                       # Sample count of references to valid blocks.
system.cpu.icache.tags.avg_refs          16167.244444                       # Average number of references to valid blocks.
system.cpu.icache.tags.warmup_cycle             92500                       # Cycle when the warmup percentage was hit.
system.cpu.icache.tags.occ_blocks::.cpu.inst   206.079784                       # Average occupied blocks per requestor
system.cpu.icache.tags.occ_percent::.cpu.inst     0.804999                       # Average percentage of cache occupancy
system.cpu.icache.tags.occ_percent::total     0.804999                       # Average percentage of cache occupancy
system.cpu.icache.tags.occ_task_id_blocks::1024          236                       # Occupied blocks per task id
system.cpu.icache.tags.age_task_id_blocks_1024::3           52                       # Occupied blocks per task id
system.cpu.icache.tags.age_task_id_blocks_1024::4          184                       # Occupied blocks per task id
system.cpu.icache.tags.occ_task_id_percent::1024     0.921875                       # Percentage of cache occupancy per task id
system.cpu.icache.tags.tag_accesses          17461164                       # Number of tag accesses
system.cpu.icache.tags.data_accesses         17461164                       # Number of data accesses
system.cpu.icache.tags.power_state.pwrStateResidencyTicks::UNDEFINED  83075823000                       # Cumulative time (in ticks) in various power states
system.cpu.itb.instHits                             0                       # ITB inst hits
system.cpu.itb.instMisses                           0                       # ITB inst misses
system.cpu.itb.readHits                             0                       # DTB read hits
system.cpu.itb.readMisses                           0                       # DTB read misses
system.cpu.itb.writeHits                            0                       # DTB write hits
system.cpu.itb.writeMisses                          0                       # DTB write misses
system.cpu.itb.inserts                              0                       # Number of times an entry is inserted into the TLB
system.cpu.itb.flushTlb                             0                       # Number of times complete TLB was flushed
system.cpu.itb.flushTlbMva                          0                       # Number of times TLB was flushed by MVA
system.cpu.itb.flushTlbMvaAsid                      0                       # Number of times TLB was flushed by MVA & ASID
system.cpu.itb.flushTlbAsid                         0                       # Number of times TLB was flushed by ASID
system.cpu.itb.flushedEntries                       0                       # Number of entries that have been flushed from TLB
system.cpu.itb.alignFaults                          0                       # Number of TLB faults due to alignment restrictions
system.cpu.itb.prefetchFaults                       0                       # Number of TLB faults due to prefetch
system.cpu.itb.domainFaults                         0                       # Number of TLB faults due to domain restrictions
system.cpu.itb.permsFaults                          0                       # Number of TLB faults due to permissions restrictions
system.cpu.itb.readAccesses                         0                       # DTB read accesses
system.cpu.itb.writeAccesses                        0                       # DTB write accesses
system.cpu.itb.instAccesses                         0                       # ITB inst accesses
system.cpu.itb.hits                                 0                       # Total TLB (inst and data) hits
system.cpu.itb.misses                               0                       # Total TLB (inst and data) misses
system.cpu.itb.accesses                             0                       # Total TLB (inst and data) accesses
system.cpu.itb.stage2_mmu.stage2_tlb.instHits            0                       # ITB inst hits
system.cpu.itb.stage2_mmu.stage2_tlb.instMisses            0                       # ITB inst misses
system.cpu.itb.stage2_mmu.stage2_tlb.readHits            0                       # DTB read hits
system.cpu.itb.stage2_mmu.stage2_tlb.readMisses            0                       # DTB read misses
system.cpu.itb.stage2_mmu.stage2_tlb.writeHits            0                       # DTB write hits
system.cpu.itb.stage2_mmu.stage2_tlb.writeMisses            0                       # DTB write misses
system.cpu.itb.stage2_mmu.stage2_tlb.inserts            0                       # Number of times an entry is inserted into the TLB
system.cpu.itb.stage2_mmu.stage2_tlb.flushTlb            0                       # Number of times complete TLB was flushed
system.cpu.itb.stage2_mmu.stage2_tlb.flushTlbMva            0                       # Number of times TLB was flushed by MVA
system.cpu.itb.stage2_mmu.stage2_tlb.flushTlbMvaAsid            0                       # Number of times TLB was flushed by MVA & ASID
system.cpu.itb.stage2_mmu.stage2_tlb.flushTlbAsid            0                       # Number of times TLB was flushed by ASID
system.cpu.itb.stage2_mmu.stage2_tlb.flushedEntries            0                       # Number of entries that have been flushed from TLB
system.cpu.itb.stage2_mmu.stage2_tlb.alignFaults            0                       # Number of TLB faults due to alignment restrictions
system.cpu.itb.stage2_mmu.stage2_tlb.prefetchFaults            0                       # Number of TLB faults due to prefetch
system.cpu.itb.stage2_mmu.stage2_tlb.domainFaults            0                       # Number of TLB faults due to domain restrictions
system.cpu.itb.stage2_mmu.stage2_tlb.permsFaults            0                       # Number of TLB faults due to permissions restrictions
system.cpu.itb.stage2_mmu.stage2_tlb.readAccesses            0                       # DTB read accesses
system.cpu.itb.stage2_mmu.stage2_tlb.writeAccesses            0                       # DTB write accesses
system.cpu.itb.stage2_mmu.stage2_tlb.instAccesses            0                       # ITB inst accesses
system.cpu.itb.stage2_mmu.stage2_tlb.hits            0                       # Total TLB (inst and data) hits
system.cpu.itb.stage2_mmu.stage2_tlb.misses            0                       # Total TLB (inst and data) misses
system.cpu.itb.stage2_mmu.stage2_tlb.accesses            0                       # Total TLB (inst and data) accesses
system.cpu.itb.stage2_mmu.stage2_tlb.walker.walks            0                       # Table walker walks requested
system.cpu.itb.stage2_mmu.stage2_tlb.walker.requestOrigin_Requested::Data            0                       # Table walker requests started/completed, data/inst
system.cpu.itb.stage2_mmu.stage2_tlb.walker.requestOrigin_Requested::Inst            0                       # Table walker requests started/completed, data/inst
system.cpu.itb.stage2_mmu.stage2_tlb.walker.requestOrigin_Requested::total            0                       # Table walker requests started/completed, data/inst
system.cpu.itb.stage2_mmu.stage2_tlb.walker.requestOrigin_Completed::Data            0                       # Table walker requests started/completed, data/inst
system.cpu.itb.stage2_mmu.stage2_tlb.walker.requestOrigin_Completed::Inst            0                       # Table walker requests started/completed, data/inst
system.cpu.itb.stage2_mmu.stage2_tlb.walker.requestOrigin_Completed::total            0                       # Table walker requests started/completed, data/inst
system.cpu.itb.stage2_mmu.stage2_tlb.walker.requestOrigin::total            0                       # Table walker requests started/completed, data/inst
system.cpu.itb.stage2_mmu.stage2_tlb.walker.power_state.pwrStateResidencyTicks::UNDEFINED  83075823000                       # Cumulative time (in ticks) in various power states
system.cpu.itb.walker.walks                         0                       # Table walker walks requested
system.cpu.itb.walker.requestOrigin_Requested::Data            0                       # Table walker requests started/completed, data/inst
system.cpu.itb.walker.requestOrigin_Requested::Inst            0                       # Table walker requests started/completed, data/inst
system.cpu.itb.walker.requestOrigin_Requested::total            0                       # Table walker requests started/completed, data/inst
system.cpu.itb.walker.requestOrigin_Completed::Data            0                       # Table walker requests started/completed, data/inst
system.cpu.itb.walker.requestOrigin_Completed::Inst            0                       # Table walker requests started/completed, data/inst
system.cpu.itb.walker.requestOrigin_Completed::total            0                       # Table walker requests started/completed, data/inst
system.cpu.itb.walker.requestOrigin::total            0                       # Table walker requests started/completed, data/inst
system.cpu.itb.walker.power_state.pwrStateResidencyTicks::UNDEFINED  83075823000                       # Cumulative time (in ticks) in various power states
system.cpu.power_state.pwrStateResidencyTicks::ON  83075823000                       # Cumulative time (in ticks) in various power states
system.cpu.thread_0.numInsts                100000000                       # Number of Instructions committed
system.cpu.thread_0.numOps                  100199496                       # Number of Ops committed
system.cpu.thread_0.numMemRefs                      0                       # Number of Memory References
system.cpu_clk_domain.clock                       500                       # Clock period in ticks
system.cpu_voltage_domain.voltage                   1                       # Voltage in Volts
system.l2.demand_hits::.cpu.inst                  117                       # number of demand (read+write) hits
system.l2.demand_hits::.cpu.data               554937                       # number of demand (read+write) hits
system.l2.demand_hits::total                   555054                       # number of demand (read+write) hits
system.l2.overall_hits::.cpu.inst                 117                       # number of overall hits
system.l2.overall_hits::.cpu.data              554937                       # number of overall hits
system.l2.overall_hits::total                  555054                       # number of overall hits
system.l2.demand_misses::.cpu.inst                423                       # number of demand (read+write) misses
system.l2.demand_misses::.cpu.data             123243                       # number of demand (read+write) misses
system.l2.demand_misses::total                 123666                       # number of demand (read+write) misses
system.l2.overall_misses::.cpu.inst               423                       # number of overall misses
system.l2.overall_misses::.cpu.data            123243                       # number of overall misses
system.l2.overall_misses::total                123666                       # number of overall misses
system.l2.demand_miss_latency::.cpu.inst     36537000                       # number of demand (read+write) miss cycles
system.l2.demand_miss_latency::.cpu.data  11223993000                       # number of demand (read+write) miss cycles
system.l2.demand_miss_latency::total      11260530000                       # number of demand (read+write) miss cycles
system.l2.overall_miss_latency::.cpu.inst     36537000                       # number of overall miss cycles
system.l2.overall_miss_latency::.cpu.data  11223993000                       # number of overall miss cycles
system.l2.overall_miss_latency::total     11260530000                       # number of overall miss cycles
system.l2.demand_accesses::.cpu.inst              540                       # number of demand (read+write) accesses
system.l2.demand_accesses::.cpu.data           678180                       # number of demand (read+write) accesses
system.l2.demand_accesses::total               678720                       # number of demand (read+write) accesses
system.l2.overall_accesses::.cpu.inst             540                       # number of overall (read+write) accesses
system.l2.overall_accesses::.cpu.data          678180                       # number of overall (read+write) accesses
system.l2.overall_accesses::total              678720                       # number of overall (read+write) accesses
system.l2.demand_miss_rate::.cpu.inst        0.783333                       # miss rate for demand accesses
system.l2.demand_miss_rate::.cpu.data        0.181726                       # miss rate for demand accesses
system.l2.demand_miss_rate::total            0.182205                       # miss rate for demand accesses
system.l2.overall_miss_rate::.cpu.inst       0.783333                       # miss rate for overall accesses
system.l2.overall_miss_rate::.cpu.data       0.181726                       # miss rate for overall accesses
system.l2.overall_miss_rate::total           0.182205                       # miss rate for overall accesses
system.l2.demand_avg_miss_latency::.cpu.inst 86375.886525                       # average overall miss latency
system.l2.demand_avg_miss_latency::.cpu.data 91072.052774                       # average overall miss latency
system.l2.demand_avg_miss_latency::total 91055.989520                       # average overall miss latency
system.l2.overall_avg_miss_latency::.cpu.inst 86375.886525                       # average overall miss latency
system.l2.overall_avg_miss_latency::.cpu.data 91072.052774                       # average overall miss latency
system.l2.overall_avg_miss_latency::total 91055.989520                       # average overall miss latency
system.l2.blocked_cycles::no_mshrs                  0                       # number of cycles access was blocked
system.l2.blocked_cycles::no_targets                0                       # number of cycles access was blocked
system.l2.blocked::no_mshrs                         0                       # number of cycles access was blocked
system.l2.blocked::no_targets                       0                       # number of cycles access was blocked
system.l2.avg_blocked_cycles::no_mshrs            nan                       # average number of cycles each access was blocked
system.l2.avg_blocked_cycles::no_targets          nan                       # average number of cycles each access was blocked
system.l2.writebacks::.writebacks               72982                       # number of writebacks
system.l2.writebacks::total                     72982                       # number of writebacks
system.l2.demand_mshr_hits::.cpu.inst               1                       # number of demand (read+write) MSHR hits
system.l2.demand_mshr_hits::.cpu.data               2                       # number of demand (read+write) MSHR hits
system.l2.demand_mshr_hits::total                   3                       # number of demand (read+write) MSHR hits
system.l2.overall_mshr_hits::.cpu.inst              1                       # number of overall MSHR hits
system.l2.overall_mshr_hits::.cpu.data              2                       # number of overall MSHR hits
system.l2.overall_mshr_hits::total                  3                       # number of overall MSHR hits
system.l2.demand_mshr_misses::.cpu.inst           422                       # number of demand (read+write) MSHR misses
system.l2.demand_mshr_misses::.cpu.data        123241                       # number of demand (read+write) MSHR misses
system.l2.demand_mshr_misses::total            123663                       # number of demand (read+write) MSHR misses
system.l2.overall_mshr_misses::.cpu.inst          422                       # number of overall MSHR misses
system.l2.overall_mshr_misses::.cpu.data       123241                       # number of overall MSHR misses
system.l2.overall_mshr_misses::total           123663                       # number of overall MSHR misses
system.l2.demand_mshr_miss_latency::.cpu.inst     32279500                       # number of demand (read+write) MSHR miss cycles
system.l2.demand_mshr_miss_latency::.cpu.data   9991436500                       # number of demand (read+write) MSHR miss cycles
system.l2.demand_mshr_miss_latency::total  10023716000                       # number of demand (read+write) MSHR miss cycles
system.l2.overall_mshr_miss_latency::.cpu.inst     32279500                       # number of overall MSHR miss cycles
system.l2.overall_mshr_miss_latency::.cpu.data   9991436500                       # number of overall MSHR miss cycles
system.l2.overall_mshr_miss_latency::total  10023716000                       # number of overall MSHR miss cycles
system.l2.demand_mshr_miss_rate::.cpu.inst     0.781481                       # mshr miss rate for demand accesses
system.l2.demand_mshr_miss_rate::.cpu.data     0.181723                       # mshr miss rate for demand accesses
system.l2.demand_mshr_miss_rate::total       0.182200                       # mshr miss rate for demand accesses
system.l2.overall_mshr_miss_rate::.cpu.inst     0.781481                       # mshr miss rate for overall accesses
system.l2.overall_mshr_miss_rate::.cpu.data     0.181723                       # mshr miss rate for overall accesses
system.l2.overall_mshr_miss_rate::total      0.182200                       # mshr miss rate for overall accesses
system.l2.demand_avg_mshr_miss_latency::.cpu.inst 76491.706161                       # average overall mshr miss latency
system.l2.demand_avg_mshr_miss_latency::.cpu.data 81072.341997                       # average overall mshr miss latency
system.l2.demand_avg_mshr_miss_latency::total 81056.710576                       # average overall mshr miss latency
system.l2.overall_avg_mshr_miss_latency::.cpu.inst 76491.706161                       # average overall mshr miss latency
system.l2.overall_avg_mshr_miss_latency::.cpu.data 81072.341997                       # average overall mshr miss latency
system.l2.overall_avg_mshr_miss_latency::total 81056.710576                       # average overall mshr miss latency
system.l2.replacements                         107396                       # number of replacements
system.l2.WritebackDirty_hits::.writebacks       626861                       # number of WritebackDirty hits
system.l2.WritebackDirty_hits::total           626861                       # number of WritebackDirty hits
system.l2.WritebackDirty_accesses::.writebacks       626861                       # number of WritebackDirty accesses(hits+misses)
system.l2.WritebackDirty_accesses::total       626861                       # number of WritebackDirty accesses(hits+misses)
system.l2.WritebackClean_hits::.writebacks          295                       # number of WritebackClean hits
system.l2.WritebackClean_hits::total              295                       # number of WritebackClean hits
system.l2.WritebackClean_accesses::.writebacks          295                       # number of WritebackClean accesses(hits+misses)
system.l2.WritebackClean_accesses::total          295                       # number of WritebackClean accesses(hits+misses)
system.l2.ReadExReq_hits::.cpu.data            205058                       # number of ReadExReq hits
system.l2.ReadExReq_hits::total                205058                       # number of ReadExReq hits
system.l2.ReadExReq_misses::.cpu.data           85275                       # number of ReadExReq misses
system.l2.ReadExReq_misses::total               85275                       # number of ReadExReq misses
system.l2.ReadExReq_miss_latency::.cpu.data   7916184000                       # number of ReadExReq miss cycles
system.l2.ReadExReq_miss_latency::total    7916184000                       # number of ReadExReq miss cycles
system.l2.ReadExReq_accesses::.cpu.data        290333                       # number of ReadExReq accesses(hits+misses)
system.l2.ReadExReq_accesses::total            290333                       # number of ReadExReq accesses(hits+misses)
system.l2.ReadExReq_miss_rate::.cpu.data     0.293714                       # miss rate for ReadExReq accesses
system.l2.ReadExReq_miss_rate::total         0.293714                       # miss rate for ReadExReq accesses
system.l2.ReadExReq_avg_miss_latency::.cpu.data 92831.240106                       # average ReadExReq miss latency
system.l2.ReadExReq_avg_miss_latency::total 92831.240106                       # average ReadExReq miss latency
system.l2.ReadExReq_mshr_misses::.cpu.data        85275                       # number of ReadExReq MSHR misses
system.l2.ReadExReq_mshr_misses::total          85275                       # number of ReadExReq MSHR misses
system.l2.ReadExReq_mshr_miss_latency::.cpu.data   7063434000                       # number of ReadExReq MSHR miss cycles
system.l2.ReadExReq_mshr_miss_latency::total   7063434000                       # number of ReadExReq MSHR miss cycles
system.l2.ReadExReq_mshr_miss_rate::.cpu.data     0.293714                       # mshr miss rate for ReadExReq accesses
system.l2.ReadExReq_mshr_miss_rate::total     0.293714                       # mshr miss rate for ReadExReq accesses
system.l2.ReadExReq_avg_mshr_miss_latency::.cpu.data 82831.240106                       # average ReadExReq mshr miss latency
system.l2.ReadExReq_avg_mshr_miss_latency::total 82831.240106                       # average ReadExReq mshr miss latency
system.l2.ReadCleanReq_hits::.cpu.inst            117                       # number of ReadCleanReq hits
system.l2.ReadCleanReq_hits::total                117                       # number of ReadCleanReq hits
system.l2.ReadCleanReq_misses::.cpu.inst          423                       # number of ReadCleanReq misses
system.l2.ReadCleanReq_misses::total              423                       # number of ReadCleanReq misses
system.l2.ReadCleanReq_miss_latency::.cpu.inst     36537000                       # number of ReadCleanReq miss cycles
system.l2.ReadCleanReq_miss_latency::total     36537000                       # number of ReadCleanReq miss cycles
system.l2.ReadCleanReq_accesses::.cpu.inst          540                       # number of ReadCleanReq accesses(hits+misses)
system.l2.ReadCleanReq_accesses::total            540                       # number of ReadCleanReq accesses(hits+misses)
system.l2.ReadCleanReq_miss_rate::.cpu.inst     0.783333                       # miss rate for ReadCleanReq accesses
system.l2.ReadCleanReq_miss_rate::total      0.783333                       # miss rate for ReadCleanReq accesses
system.l2.ReadCleanReq_avg_miss_latency::.cpu.inst 86375.886525                       # average ReadCleanReq miss latency
system.l2.ReadCleanReq_avg_miss_latency::total 86375.886525                       # average ReadCleanReq miss latency
system.l2.ReadCleanReq_mshr_hits::.cpu.inst            1                       # number of ReadCleanReq MSHR hits
system.l2.ReadCleanReq_mshr_hits::total             1                       # number of ReadCleanReq MSHR hits
system.l2.ReadCleanReq_mshr_misses::.cpu.inst          422                       # number of ReadCleanReq MSHR misses
system.l2.ReadCleanReq_mshr_misses::total          422                       # number of ReadCleanReq MSHR misses
system.l2.ReadCleanReq_mshr_miss_latency::.cpu.inst     32279500                       # number of ReadCleanReq MSHR miss cycles
system.l2.ReadCleanReq_mshr_miss_latency::total     32279500                       # number of ReadCleanReq MSHR miss cycles
system.l2.ReadCleanReq_mshr_miss_rate::.cpu.inst     0.781481                       # mshr miss rate for ReadCleanReq accesses
system.l2.ReadCleanReq_mshr_miss_rate::total     0.781481                       # mshr miss rate for ReadCleanReq accesses
system.l2.ReadCleanReq_avg_mshr_miss_latency::.cpu.inst 76491.706161                       # average ReadCleanReq mshr miss latency
system.l2.ReadCleanReq_avg_mshr_miss_latency::total 76491.706161                       # average ReadCleanReq mshr miss latency
system.l2.ReadSharedReq_hits::.cpu.data        349879                       # number of ReadSharedReq hits
system.l2.ReadSharedReq_hits::total            349879                       # number of ReadSharedReq hits
system.l2.ReadSharedReq_misses::.cpu.data        37968                       # number of ReadSharedReq misses
system.l2.ReadSharedReq_misses::total           37968                       # number of ReadSharedReq misses
system.l2.ReadSharedReq_miss_latency::.cpu.data   3307809000                       # number of ReadSharedReq miss cycles
system.l2.ReadSharedReq_miss_latency::total   3307809000                       # number of ReadSharedReq miss cycles
system.l2.ReadSharedReq_accesses::.cpu.data       387847                       # number of ReadSharedReq accesses(hits+misses)
system.l2.ReadSharedReq_accesses::total        387847                       # number of ReadSharedReq accesses(hits+misses)
system.l2.ReadSharedReq_miss_rate::.cpu.data     0.097894                       # miss rate for ReadSharedReq accesses
system.l2.ReadSharedReq_miss_rate::total     0.097894                       # miss rate for ReadSharedReq accesses
system.l2.ReadSharedReq_avg_miss_latency::.cpu.data 87120.970291                       # average ReadSharedReq miss latency
system.l2.ReadSharedReq_avg_miss_latency::total 87120.970291                       # average ReadSharedReq miss latency
system.l2.ReadSharedReq_mshr_hits::.cpu.data            2                       # number of ReadSharedReq MSHR hits
system.l2.ReadSharedReq_mshr_hits::total            2                       # number of ReadSharedReq MSHR hits
system.l2.ReadSharedReq_mshr_misses::.cpu.data        37966                       # number of ReadSharedReq MSHR misses
system.l2.ReadSharedReq_mshr_misses::total        37966                       # number of ReadSharedReq MSHR misses
system.l2.ReadSharedReq_mshr_miss_latency::.cpu.data   2928002500                       # number of ReadSharedReq MSHR miss cycles
system.l2.ReadSharedReq_mshr_miss_latency::total   2928002500                       # number of ReadSharedReq MSHR miss cycles
system.l2.ReadSharedReq_mshr_miss_rate::.cpu.data     0.097889                       # mshr miss rate for ReadSharedReq accesses
system.l2.ReadSharedReq_mshr_miss_rate::total     0.097889                       # mshr miss rate for ReadSharedReq accesses
system.l2.ReadSharedReq_avg_mshr_miss_latency::.cpu.data 77121.700996                       # average ReadSharedReq mshr miss latency
system.l2.ReadSharedReq_avg_mshr_miss_latency::total 77121.700996                       # average ReadSharedReq mshr miss latency
system.l2.power_state.pwrStateResidencyTicks::UNDEFINED  83075823000                       # Cumulative time (in ticks) in various power states
system.l2.tags.tagsinuse                 15944.862256                       # Cycle average of tags in use
system.l2.tags.total_refs                     1356471                       # Total number of references to valid blocks.
system.l2.tags.sampled_refs                    123780                       # Sample count of references to valid blocks.
system.l2.tags.avg_refs                     10.958725                       # Average number of references to valid blocks.
system.l2.tags.warmup_cycle                     82000                       # Cycle when the warmup percentage was hit.
system.l2.tags.occ_blocks::.writebacks      38.857679                       # Average occupied blocks per requestor
system.l2.tags.occ_blocks::.cpu.inst        48.409248                       # Average occupied blocks per requestor
system.l2.tags.occ_blocks::.cpu.data     15857.595329                       # Average occupied blocks per requestor
system.l2.tags.occ_percent::.writebacks      0.002372                       # Average percentage of cache occupancy
system.l2.tags.occ_percent::.cpu.inst        0.002955                       # Average percentage of cache occupancy
system.l2.tags.occ_percent::.cpu.data        0.967871                       # Average percentage of cache occupancy
system.l2.tags.occ_percent::total            0.973197                       # Average percentage of cache occupancy
system.l2.tags.occ_task_id_blocks::1024         16384                       # Occupied blocks per task id
system.l2.tags.age_task_id_blocks_1024::0           39                       # Occupied blocks per task id
system.l2.tags.age_task_id_blocks_1024::1           30                       # Occupied blocks per task id
system.l2.tags.age_task_id_blocks_1024::2          713                       # Occupied blocks per task id
system.l2.tags.age_task_id_blocks_1024::3         9042                       # Occupied blocks per task id
system.l2.tags.age_task_id_blocks_1024::4         6560                       # Occupied blocks per task id
system.l2.tags.occ_task_id_percent::1024            1                       # Percentage of cache occupancy per task id
system.l2.tags.tag_accesses                  10975572                       # Number of tag accesses
system.l2.tags.data_accesses                 10975572                       # Number of data accesses
system.l2.tags.power_state.pwrStateResidencyTicks::UNDEFINED  83075823000                       # Cumulative time (in ticks) in various power states
system.mem_ctrls.avgPriority_.writebacks::samples    145964.00                       # Average QoS priority value for accepted requests
system.mem_ctrls.avgPriority_.cpu.inst::samples       844.00                       # Average QoS priority value for accepted requests
system.mem_ctrls.avgPriority_.cpu.data::samples    246438.00                       # Average QoS priority value for accepted requests
system.mem_ctrls.priorityMinLatency      0.000000018750                       # per QoS priority minimum request to response latency (s)
system.mem_ctrls.priorityMaxLatency      0.006217918500                       # per QoS priority maximum request to response latency (s)
system.mem_ctrls.numReadWriteTurnArounds         8792                       # Number of turnarounds from READ to WRITE
system.mem_ctrls.numWriteReadTurnArounds         8792                       # Number of turnarounds from WRITE to READ
system.mem_ctrls.numStayReadState              451962                       # Number of times bus staying in READ state
system.mem_ctrls.numStayWriteState             137393                       # Number of times bus staying in WRITE state
system.mem_ctrls.readReqs                      123663                       # Number of read requests accepted
system.mem_ctrls.writeReqs                      72982                       # Number of write requests accepted
system.mem_ctrls.readBursts                    247326                       # Number of controller read bursts, including those serviced by the write queue
system.mem_ctrls.writeBursts                   145964                       # Number of controller write bursts, including those merged in the write queue
system.mem_ctrls.servicedByWrQ                     44                       # Number of controller read bursts serviced by the write queue
system.mem_ctrls.mergedWrBursts                     0                       # Number of controller write bursts merged with an existing one
system.mem_ctrls.neitherReadNorWriteReqs            0                       # Number of requests that are neither read nor write
system.mem_ctrls.avgRdQLen                       2.06                       # Average read queue length when enqueuing
system.mem_ctrls.avgWrQLen                      25.39                       # Average write queue length when enqueuing
system.mem_ctrls.numRdRetry                         0                       # Number of times read queue was full causing retry
system.mem_ctrls.numWrRetry                         0                       # Number of times write queue was full causing retry
system.mem_ctrls.readPktSize::0                     0                       # Read request sizes (log2)
system.mem_ctrls.readPktSize::1                     0                       # Read request sizes (log2)
system.mem_ctrls.readPktSize::2                     0                       # Read request sizes (log2)
system.mem_ctrls.readPktSize::3                     0                       # Read request sizes (log2)
system.mem_ctrls.readPktSize::4                     0                       # Read request sizes (log2)
system.mem_ctrls.readPktSize::5                     0                       # Read request sizes (log2)
system.mem_ctrls.readPktSize::6                247326                       # Read request sizes (log2)
system.mem_ctrls.readPktSize::7                     0                       # Read request sizes (log2)
system.mem_ctrls.writePktSize::0                    0                       # Write request sizes (log2)
system.mem_ctrls.writePktSize::1                    0                       # Write request sizes (log2)
system.mem_ctrls.writePktSize::2                    0                       # Write request sizes (log2)
system.mem_ctrls.writePktSize::3                    0                       # Write request sizes (log2)
system.mem_ctrls.writePktSize::4                    0                       # Write request sizes (log2)
system.mem_ctrls.writePktSize::5                    0                       # Write request sizes (log2)
system.mem_ctrls.writePktSize::6               145964                       # Write request sizes (log2)
system.mem_ctrls.writePktSize::7                    0                       # Write request sizes (log2)
system.mem_ctrls.rdQLenPdf::0                  104927                       # What read queue length does an incoming req see
system.mem_ctrls.rdQLenPdf::1                  105267                       # What read queue length does an incoming req see
system.mem_ctrls.rdQLenPdf::2                   18706                       # What read queue length does an incoming req see
system.mem_ctrls.rdQLenPdf::3                   18364                       # What read queue length does an incoming req see
system.mem_ctrls.rdQLenPdf::4                       8                       # What read queue length does an incoming req see
system.mem_ctrls.rdQLenPdf::5                       8                       # What read queue length does an incoming req see
[...]
system.mem_ctrls.dram.bw_write::.writebacks    112447830                       # Write bandwidth from this memory (bytes/s)
system.mem_ctrls.dram.bw_write::total       112447830                       # Write bandwidth from this memory (bytes/s)
system.mem_ctrls.dram.bw_total::.writebacks    112447830                       # Total bandwidth to/from this memory (bytes/s)
system.mem_ctrls.dram.bw_total::.cpu.inst       650201                       # Total bandwidth to/from this memory (bytes/s)
system.mem_ctrls.dram.bw_total::.cpu.data    189884944                       # Total bandwidth to/from this memory (bytes/s)
system.mem_ctrls.dram.bw_total::total       302982975                       # Total bandwidth to/from this memory (bytes/s)
system.mem_ctrls.dram.readBursts               247282                       # Number of DRAM read bursts
system.mem_ctrls.dram.writeBursts              145949                       # Number of DRAM write bursts
system.mem_ctrls.dram.perBankRdBursts::0        15717                       # Per bank write bursts
system.mem_ctrls.dram.perBankRdBursts::1        15386                       # Per bank write bursts
system.mem_ctrls.dram.perBankRdBursts::2        15420                       # Per bank write bursts
system.mem_ctrls.dram.perBankRdBursts::3        15232                       # Per bank write bursts
system.mem_ctrls.dram.perBankRdBursts::4        15526                       # Per bank write bursts
system.mem_ctrls.dram.perBankRdBursts::5        15192                       # Per bank write bursts
system.mem_ctrls.dram.perBankRdBursts::6        15286                       # Per bank write bursts
system.mem_ctrls.dram.perBankRdBursts::7        14886                       # Per bank write bursts
system.mem_ctrls.dram.perBankRdBursts::8        15480                       # Per bank write bursts
system.mem_ctrls.dram.perBankRdBursts::9        15507                       # Per bank write bursts
system.mem_ctrls.dram.perBankRdBursts::10        15670                       # Per bank write bursts
system.mem_ctrls.dram.perBankRdBursts::11        15584                       # Per bank write bursts
system.mem_ctrls.dram.perBankRdBursts::12        15598                       # Per bank write bursts
system.mem_ctrls.dram.perBankRdBursts::13        15416                       # Per bank write bursts
system.mem_ctrls.dram.perBankRdBursts::14        15726                       # Per bank write bursts
system.mem_ctrls.dram.perBankRdBursts::15        15656                       # Per bank write bursts
system.mem_ctrls.dram.perBankWrBursts::0         9248                       # Per bank write bursts
system.mem_ctrls.dram.perBankWrBursts::1         9163                       # Per bank write bursts
system.mem_ctrls.dram.perBankWrBursts::2         9182                       # Per bank write bursts
system.mem_ctrls.dram.perBankWrBursts::3         9102                       # Per bank write bursts
system.mem_ctrls.dram.perBankWrBursts::4         9354                       # Per bank write bursts
system.mem_ctrls.dram.perBankWrBursts::5         8996                       # Per bank write bursts
system.mem_ctrls.dram.perBankWrBursts::6         9022                       # Per bank write bursts
system.mem_ctrls.dram.perBankWrBursts::7         8644                       # Per bank write bursts
system.mem_ctrls.dram.perBankWrBursts::8         9072                       # Per bank write bursts
system.mem_ctrls.dram.perBankWrBursts::9         9098                       # Per bank write bursts
system.mem_ctrls.dram.perBankWrBursts::10         9186                       # Per bank write bursts
system.mem_ctrls.dram.perBankWrBursts::11         9144                       # Per bank write bursts
system.mem_ctrls.dram.perBankWrBursts::12         9204                       # Per bank write bursts
system.mem_ctrls.dram.perBankWrBursts::13         9050                       # Per bank write bursts
system.mem_ctrls.dram.perBankWrBursts::14         9228                       # Per bank write bursts
system.mem_ctrls.dram.perBankWrBursts::15         9256                       # Per bank write bursts
system.mem_ctrls.dram.totQLat              4605778500                       # Total ticks spent queuing
system.mem_ctrls.dram.totBusLat            1236410000                       # Total ticks spent in databus transfers
system.mem_ctrls.dram.totMemAccLat         9242316000                       # Total ticks spent from burst creation until serviced by the DRAM
system.mem_ctrls.dram.avgQLat                18625.61                       # Average queueing delay per DRAM burst
system.mem_ctrls.dram.avgBusLat               5000.00                       # Average bus latency per DRAM burst
system.mem_ctrls.dram.avgMemAccLat           37375.61                       # Average memory access latency per DRAM burst
system.mem_ctrls.dram.readRowHits              204151                       # Number of row buffer hits during reads
system.mem_ctrls.dram.writeRowHits             116429                       # Number of row buffer hits during writes
system.mem_ctrls.dram.readRowHitRate            82.56                       # Row buffer hit rate for reads
system.mem_ctrls.dram.writeRowHitRate           79.77                       # Row buffer hit rate for writes
system.mem_ctrls.dram.bytesPerActivate::samples        72641                       # Bytes accessed per row activation
system.mem_ctrls.dram.bytesPerActivate::mean   346.437522                       # Bytes accessed per row activation
system.mem_ctrls.dram.bytesPerActivate::gmean   220.841355                       # Bytes accessed per row activation
system.mem_ctrls.dram.bytesPerActivate::stdev   358.926134                       # Bytes accessed per row activation
system.mem_ctrls.dram.bytesPerActivate::0-127         3447      4.75%      4.75% # Bytes accessed per row activation
system.mem_ctrls.dram.bytesPerActivate::128-255        44288     60.97%     65.71% # Bytes accessed per row activation
system.mem_ctrls.dram.bytesPerActivate::256-383         4728      6.51%     72.22% # Bytes accessed per row activation
system.mem_ctrls.dram.bytesPerActivate::384-511         1651      2.27%     74.50% # Bytes accessed per row activation
system.mem_ctrls.dram.bytesPerActivate::512-639         1326      1.83%     76.32% # Bytes accessed per row activation
system.mem_ctrls.dram.bytesPerActivate::640-767         1772      2.44%     78.76% # Bytes accessed per row activation
system.mem_ctrls.dram.bytesPerActivate::768-895          780      1.07%     79.83% # Bytes accessed per row activation
system.mem_ctrls.dram.bytesPerActivate::896-1023          886      1.22%     81.05% # Bytes accessed per row activation
system.mem_ctrls.dram.bytesPerActivate::1024-1151        13763     18.95%    100.00% # Bytes accessed per row activation
system.mem_ctrls.dram.bytesPerActivate::total        72641                       # Bytes accessed per row activation
system.mem_ctrls.dram.bytesRead              15826048                       # Total number of bytes read from DRAM
system.mem_ctrls.dram.bytesWritten            9340736                       # Total number of bytes written to DRAM
system.mem_ctrls.dram.avgRdBW              190.501248                       # Average DRAM read bandwidth in MiBytes/s
system.mem_ctrls.dram.avgWrBW              112.436274                       # Average DRAM write bandwidth in MiBytes/s
system.mem_ctrls.dram.peakBW                 12800.00                       # Theoretical peak bandwidth in MiByte/s
system.mem_ctrls.dram.busUtil                    2.37                       # Data bus utilization in percentage
system.mem_ctrls.dram.busUtilRead                1.49                       # Data bus utilization in percentage for reads
system.mem_ctrls.dram.busUtilWrite               0.88                       # Data bus utilization in percentage for writes
system.mem_ctrls.dram.pageHitRate               81.52                       # Row buffer hit rate, read and write combined
system.mem_ctrls.dram.power_state.pwrStateResidencyTicks::UNDEFINED  83075823000                       # Cumulative time (in ticks) in various power states
system.mem_ctrls.dram.rank0.actEnergy       258725040                       # Energy for activate commands per rank (pJ)
system.mem_ctrls.dram.rank0.preEnergy       137492850                       # Energy for precharge commands per rank (pJ)
system.mem_ctrls.dram.rank0.readEnergy      875685300                       # Energy for read commands per rank (pJ)
system.mem_ctrls.dram.rank0.writeEnergy     379551420                       # Energy for write commands per rank (pJ)
system.mem_ctrls.dram.rank0.refreshEnergy 6557594160.000001                       # Energy for refresh commands per rank (pJ)
system.mem_ctrls.dram.rank0.actBackEnergy  17324797740                       # Energy for active background per rank (pJ)
system.mem_ctrls.dram.rank0.preBackEnergy  17311812960                       # Energy for precharge background per rank (pJ)
system.mem_ctrls.dram.rank0.actPowerDownEnergy            0                       # Energy for active power-down per rank (pJ)
system.mem_ctrls.dram.rank0.prePowerDownEnergy            0                       # Energy for precharge power-down per rank (pJ)
system.mem_ctrls.dram.rank0.selfRefreshEnergy            0                       # Energy for self refresh per rank (pJ)
system.mem_ctrls.dram.rank0.totalEnergy   42845659470                       # Total energy per rank (pJ)
system.mem_ctrls.dram.rank0.averagePower   515.741619                       # Core power per rank (mW)
system.mem_ctrls.dram.rank0.totalIdleTime            0                       # Total Idle time Per DRAM Rank
system.mem_ctrls.dram.rank0.pwrStateTime::IDLE  44810625500                       # Time in different power states
system.mem_ctrls.dram.rank0.pwrStateTime::REF   2773940000                       # Time in different power states
system.mem_ctrls.dram.rank0.pwrStateTime::SREF            0                       # Time in different power states
system.mem_ctrls.dram.rank0.pwrStateTime::PRE_PDN            0                       # Time in different power states
system.mem_ctrls.dram.rank0.pwrStateTime::ACT  35491257500                       # Time in different power states
system.mem_ctrls.dram.rank0.pwrStateTime::ACT_PDN            0                       # Time in different power states
system.mem_ctrls.dram.rank1.actEnergy       260003100                       # Energy for activate commands per rank (pJ)
system.mem_ctrls.dram.rank1.preEnergy       138179745                       # Energy for precharge commands per rank (pJ)
system.mem_ctrls.dram.rank1.readEnergy      889908180                       # Energy for read commands per rank (pJ)
system.mem_ctrls.dram.rank1.writeEnergy     382302360                       # Energy for write commands per rank (pJ)
system.mem_ctrls.dram.rank1.refreshEnergy 6557594160.000001                       # Energy for refresh commands per rank (pJ)
system.mem_ctrls.dram.rank1.actBackEnergy  18017429820                       # Energy for active background per rank (pJ)
system.mem_ctrls.dram.rank1.preBackEnergy  16728543840                       # Energy for precharge background per rank (pJ)
system.mem_ctrls.dram.rank1.actPowerDownEnergy            0                       # Energy for active power-down per rank (pJ)
system.mem_ctrls.dram.rank1.prePowerDownEnergy            0                       # Energy for precharge power-down per rank (pJ)
system.mem_ctrls.dram.rank1.selfRefreshEnergy            0                       # Energy for self refresh per rank (pJ)
system.mem_ctrls.dram.rank1.totalEnergy   42973961205                       # Total energy per rank (pJ)
system.mem_ctrls.dram.rank1.averagePower   517.286012                       # Core power per rank (mW)
system.mem_ctrls.dram.rank1.totalIdleTime            0                       # Total Idle time Per DRAM Rank
system.mem_ctrls.dram.rank1.pwrStateTime::IDLE  43284844750                       # Time in different power states
system.mem_ctrls.dram.rank1.pwrStateTime::REF   2773940000                       # Time in different power states
system.mem_ctrls.dram.rank1.pwrStateTime::SREF            0                       # Time in different power states
system.mem_ctrls.dram.rank1.pwrStateTime::PRE_PDN            0                       # Time in different power states
system.mem_ctrls.dram.rank1.pwrStateTime::ACT  37017038250                       # Time in different power states
system.mem_ctrls.dram.rank1.pwrStateTime::ACT_PDN            0                       # Time in different power states
system.mem_ctrls.power_state.pwrStateResidencyTicks::UNDEFINED  83075823000                       # Cumulative time (in ticks) in various power states
system.membus.trans_dist::ReadResp              38388                       # Transaction distribution
system.membus.trans_dist::WritebackDirty        72982                       # Transaction distribution
system.membus.trans_dist::CleanEvict            34098                       # Transaction distribution
system.membus.trans_dist::ReadExReq             85275                       # Transaction distribution
system.membus.trans_dist::ReadExResp            85275                       # Transaction distribution
system.membus.trans_dist::ReadSharedReq         38388                       # Transaction distribution
system.membus.pkt_count_system.l2.mem_side_port::system.mem_ctrls.port       354406                       # Packet count per connected requestor and responder (bytes)
system.membus.pkt_count::total                 354406                       # Packet count per connected requestor and responder (bytes)
system.membus.pkt_size_system.l2.mem_side_port::system.mem_ctrls.port     25170560                       # Cumulative packet size per connected requestor and responder (bytes)
system.membus.pkt_size::total                25170560                       # Cumulative packet size per connected requestor and responder (bytes)
system.membus.snoops                                0                       # Total snoops (count)
system.membus.snoopTraffic                          0                       # Total snoop traffic (bytes)
system.membus.snoop_fanout::samples            123663                       # Request fanout histogram
system.membus.snoop_fanout::mean                    0                       # Request fanout histogram
system.membus.snoop_fanout::stdev                   0                       # Request fanout histogram
system.membus.snoop_fanout::underflows              0      0.00%      0.00% # Request fanout histogram
system.membus.snoop_fanout::0                  123663    100.00%    100.00% # Request fanout histogram
system.membus.snoop_fanout::1                       0      0.00%    100.00% # Request fanout histogram
system.membus.snoop_fanout::overflows               0      0.00%    100.00% # Request fanout histogram
system.membus.snoop_fanout::min_value               0                       # Request fanout histogram
system.membus.snoop_fanout::max_value               0                       # Request fanout histogram
system.membus.snoop_fanout::total              123663                       # Request fanout histogram
system.membus.power_state.pwrStateResidencyTicks::UNDEFINED  83075823000                       # Cumulative time (in ticks) in various power states
system.membus.reqLayer0.occupancy           845997000                       # Layer occupancy (ticks)
system.membus.reqLayer0.utilization               1.0                       # Layer utilization (%)
system.membus.respLayer1.occupancy         1157478250                       # Layer occupancy (ticks)
system.membus.respLayer1.utilization              1.4                       # Layer utilization (%)
system.tol2bus.trans_dist::ReadResp            388387                       # Transaction distribution
system.tol2bus.trans_dist::WritebackDirty       699843                       # Transaction distribution
system.tol2bus.trans_dist::WritebackClean          304                       # Transaction distribution
system.tol2bus.trans_dist::CleanEvict           85220                       # Transaction distribution
system.tol2bus.trans_dist::ReadExReq           290333                       # Transaction distribution
system.tol2bus.trans_dist::ReadExResp          290332                       # Transaction distribution
system.tol2bus.trans_dist::ReadCleanReq           540                       # Transaction distribution
system.tol2bus.trans_dist::ReadSharedReq       387847                       # Transaction distribution
system.tol2bus.pkt_count_system.cpu.icache.mem_side_port::system.l2.cpu_side_port         1384                       # Packet count per connected requestor and responder (bytes)
system.tol2bus.pkt_count_system.cpu.dcache.mem_side_port::system.l2.cpu_side_port      2034026                       # Packet count per connected requestor and responder (bytes)
system.tol2bus.pkt_count::total               2035410                       # Packet count per connected requestor and responder (bytes)
system.tol2bus.pkt_size_system.cpu.icache.mem_side_port::system.l2.cpu_side_port       108032                       # Cumulative packet size per connected requestor and responder (bytes)
system.tol2bus.pkt_size_system.cpu.dcache.mem_side_port::system.l2.cpu_side_port    167045120                       # Cumulative packet size per connected requestor and responder (bytes)
system.tol2bus.pkt_size::total              167153152                       # Cumulative packet size per connected requestor and responder (bytes)
system.tol2bus.snoops                          107396                       # Total snoops (count)
system.tol2bus.snoopTraffic                   9341696                       # Total snoop traffic (bytes)
system.tol2bus.snoop_fanout::samples           786116                       # Request fanout histogram
system.tol2bus.snoop_fanout::mean            0.000679                       # Request fanout histogram
system.tol2bus.snoop_fanout::stdev           0.026103                       # Request fanout histogram
system.tol2bus.snoop_fanout::underflows             0      0.00%      0.00% # Request fanout histogram
system.tol2bus.snoop_fanout::0                 785583     99.93%     99.93% # Request fanout histogram
system.tol2bus.snoop_fanout::1                    532      0.07%    100.00% # Request fanout histogram
system.tol2bus.snoop_fanout::2                      1      0.00%    100.00% # Request fanout histogram
system.tol2bus.snoop_fanout::overflows              0      0.00%    100.00% # Request fanout histogram
system.tol2bus.snoop_fanout::min_value              0                       # Request fanout histogram
system.tol2bus.snoop_fanout::max_value              2                       # Request fanout histogram
system.tol2bus.snoop_fanout::total             786116                       # Request fanout histogram
system.tol2bus.power_state.pwrStateResidencyTicks::UNDEFINED  83075823000                       # Cumulative time (in ticks) in various power states
system.tol2bus.reqLayer0.occupancy         1932675500                       # Layer occupancy (ticks)
system.tol2bus.reqLayer0.utilization              2.3                       # Layer utilization (%)
system.tol2bus.respLayer0.occupancy           1350499                       # Layer occupancy (ticks)
system.tol2bus.respLayer0.utilization             0.0                       # Layer utilization (%)
system.tol2bus.respLayer1.occupancy        1695448498                       # Layer occupancy (ticks)
system.tol2bus.respLayer1.utilization             2.0                       # Layer utilization (%)
system.voltage_domain.voltage                       1                       # Voltage in Volts

---------- End Simulation Statistics   ----------
