
---------- Begin Simulation Statistics ----------
final_tick                                83828546000                       # Number of ticks from beginning of simulation (restored from checkpoints and never reset)
host_inst_rate                                 275678                       # Simulator instruction rate (inst/s)
host_mem_usage                                 726784                       # Number of bytes of host memory used
host_op_rate                                   276228                       # Simulator op (including micro ops) rate (op/s)
host_seconds                                   362.74                       # Real time elapsed on the host
host_tick_rate                              231097007                       # Simulator tick rate (ticks/s)
sim_freq                                 1000000000000                       # Frequency of simulated ticks
sim_insts                                   100000000                       # Number of instructions simulated
sim_ops                                     100199496                       # Number of ops (including micro ops) simulated
sim_seconds                                  0.083829                       # Number of seconds simulated
sim_ticks                                 83828546000                       # Number of ticks simulated
system.cpu.committedInsts                   100000000                       # Number of instructions committed
system.cpu.committedOps                     100199496                       # Number of ops (including micro ops) committed
system.cpu.cpi                               1.676571                       # CPI: cycles per instruction
system.cpu.discardedOps                        197535                       # Number of ops (including micro ops) which were discarded before commit
system.cpu.idleCycles                        34716032                       # Total number of cycles that the object has spent stopped
system.cpu.ipc                               0.596456                       # IPC: instructions per cycle
system.cpu.numCycles                        167657092                       # number of cpu cycles simulated
system.cpu.numFetchSuspends                         0                       # Number of times Execute suspended instruction fetching
system.cpu.numWorkItemsCompleted                    0                       # number of work items this cpu completed
system.cpu.numWorkItemsStarted                      0                       # number of work items this cpu started
system.cpu.op_class_0::No_OpClass                   0      0.00%      0.00% # Class of committed instruction
system.cpu.op_class_0::IntAlu                46438739     46.35%     46.35% # Class of committed instruction
system.cpu.op_class_0::IntMult                  20720      0.02%     46.37% # Class of committed instruction
system.cpu.op_class_0::IntDiv                       0      0.00%     46.37% # Class of committed instruction
system.cpu.op_class_0::FloatAdd                     0      0.00%     46.37% # Class of committed instruction
system.cpu.op_class_0::FloatCmp                     0      0.00%     46.37% # Class of committed instruction
system.cpu.op_class_0::FloatCvt                     0      0.00%     46.37% # Class of committed instruction
system.cpu.op_class_0::FloatMult                    0      0.00%     46.37% # Class of committed instruction
system.cpu.op_class_0::FloatMultAcc                 0      0.00%     46.37% # Class of committed instruction
system.cpu.op_class_0::FloatDiv                     0      0.00%     46.37% # Class of committed instruction
system.cpu.op_class_0::FloatMisc                    0      0.00%     46.37% # Class of committed instruction
system.cpu.op_class_0::FloatSqrt                    0      0.00%     46.37% # Class of committed instruction
system.cpu.op_class_0::SimdAdd                      0      0.00%     46.37% # Class of committed instruction
system.cpu.op_class_0::SimdAddAcc                   0      0.00%     46.37% # Class of committed instruction
system.cpu.op_class_0::SimdAlu                      0      0.00%     46.37% # Class of committed instruction
system.cpu.op_class_0::SimdCmp                      0      0.00%     46.37% # Class of committed instruction
system.cpu.op_class_0::SimdCvt                      0      0.00%     46.37% # Class of committed instruction
system.cpu.op_class_0::SimdMisc                     0      0.00%     46.37% # Class of committed instruction
system.cpu.op_class_0::SimdMult                     0      0.00%     46.37% # Class of committed instruction
system.cpu.op_class_0::SimdMultAcc                  0      0.00%     46.37% # Class of committed instruction
system.cpu.op_class_0::SimdShift                    0      0.00%     46.37% # Class of committed instruction
system.cpu.op_class_0::SimdShiftAcc                 0      0.00%     46.37% # Class of committed instruction
system.cpu.op_class_0::SimdDiv                      0      0.00%     46.37% # Class of committed instruction
system.cpu.op_class_0::SimdSqrt                     0      0.00%     46.37% # Class of committed instruction
system.cpu.op_class_0::SimdFloatAdd                 0      0.00%     46.37% # Class of committed instruction
system.cpu.op_class_0::SimdFloatAlu                 0      0.00%     46.37% # Class of committed instruction
system.cpu.op_class_0::SimdFloatCmp                 0      0.00%     46.37% # Class of committed instruction
system.cpu.op_class_0::SimdFloatCvt                 0      0.00%     46.37% # Class of committed instruction
system.cpu.op_class_0::SimdFloatDiv                 0      0.00%     46.37% # Class of committed instruction
system.cpu.op_class_0::SimdFloatMisc                1      0.00%     46.37% # Class of committed instruction
system.cpu.op_class_0::SimdFloatMult                0      0.00%     46.37% # Class of committed instruction
system.cpu.op_class_0::SimdFloatMultAcc             0      0.00%     46.37% # Class of committed instruction
system.cpu.op_class_0::SimdFloatSqrt                0      0.00%     46.37% # Class of committed instruction
system.cpu.op_class_0::SimdReduceAdd                0      0.00%     46.37% # Class of committed instruction
system.cpu.op_class_0::SimdReduceAlu                0      0.00%     46.37% # Class of committed instruction
system.cpu.op_class_0::SimdReduceCmp                0      0.00%     46.37% # Class of committed instruction
system.cpu.op_class_0::SimdFloatReduceAdd            0      0.00%     46.37% # Class of committed instruction
system.cpu.op_class_0::SimdFloatReduceCmp            0      0.00%     46.37% # Class of committed instruction
system.cpu.op_class_0::SimdAes                      0      0.00%     46.37% # Class of committed instruction
system.cpu.op_class_0::SimdAesMix                   0      0.00%     46.37% # Class of committed instruction
system.cpu.op_class_0::SimdSha1Hash                 0      0.00%     46.37% # Class of committed instruction
system.cpu.op_class_0::SimdSha1Hash2                0      0.00%     46.37% # Class of committed instruction
system.cpu.op_class_0::SimdSha256Hash               0      0.00%     46.37% # Class of committed instruction
system.cpu.op_class_0::SimdSha256Hash2              0      0.00%     46.37% # Class of committed instruction
system.cpu.op_class_0::SimdShaSigma2                0      0.00%     46.37% # Class of committed instruction
system.cpu.op_class_0::SimdShaSigma3                0      0.00%     46.37% # Class of committed instruction
system.cpu.op_class_0::SimdPredAlu                  0      0.00%     46.37% # Class of committed instruction
system.cpu.op_class_0::MemRead               42753845     42.67%     89.04% # Class of committed instruction
system.cpu.op_class_0::MemWrite              10986191     10.96%    100.00% # Class of committed instruction
system.cpu.op_class_0::FloatMemRead                 0      0.00%    100.00% # Class of committed instruction
system.cpu.op_class_0::FloatMemWrite                0      0.00%    100.00% # Class of committed instruction
system.cpu.op_class_0::IprAccess                    0      0.00%    100.00% # Class of committed instruction
system.cpu.op_class_0::InstPrefetch                 0      0.00%    100.00% # Class of committed instruction
system.cpu.op_class_0::total                100199496                       # Class of committed instruction
system.cpu.tickCycles                       132941060                       # Number of cycles that the object actually ticked
system.cpu.workload.numSyscalls                    85                       # Number of system calls
system.membus.snoop_filter.hit_multi_requests            0                       # Number of requests hitting in the snoop filter with multiple (>1) holders of the requested data.
system.membus.snoop_filter.hit_multi_snoops            0                       # Number of snoops hitting in the snoop filter with multiple (>1) holders of the requested data.
system.membus.snoop_filter.hit_single_requests       168671                       # Number of requests hitting in the snoop filter with a single holder of the requested data.
system.membus.snoop_filter.hit_single_snoops            0                       # Number of snoops hitting in the snoop filter with a single holder of the requested data.
system.membus.snoop_filter.tot_requests        370654                       # Total number of requests made to the snoop filter.
system.membus.snoop_filter.tot_snoops               0                       # Total number of snoops made to the snoop filter.
system.tol2bus.snoop_filter.hit_multi_requests          199                       # Number of requests hitting in the snoop filter with multiple (>1) holders of the requested data.
system.tol2bus.snoop_filter.hit_multi_snoops            0                       # Number of snoops hitting in the snoop filter with multiple (>1) holders of the requested data.
system.tol2bus.snoop_filter.hit_single_requests       683628                       # Number of requests hitting in the snoop filter with a single holder of the requested data.
system.tol2bus.snoop_filter.hit_single_snoops          577                       # Number of snoops hitting in the snoop filter with a single holder of the requested data.
system.tol2bus.snoop_filter.tot_requests      1368932                       # Total number of requests made to the snoop filter.
system.tol2bus.snoop_filter.tot_snoops            577                       # Total number of snoops made to the snoop filter.
system.clk_domain.clock                          1000                       # Clock period in ticks
system.cpu.branchPred.lookups                 4397408                       # Number of BP lookups
system.cpu.branchPred.condPredicted           3642750                       # Number of conditional branches predicted
system.cpu.branchPred.condIncorrect             83178                       # Number of conditional branches incorrect
system.cpu.branchPred.BTBLookups              2112914                       # Number of BTB lookups
system.cpu.branchPred.BTBHits                 2110698                       # Number of BTB hits
system.cpu.branchPred.BTBHitPct             99.895121                       # BTB Hit Percentage
system.cpu.branchPred.RASUsed                   66045                       # Number of times the RAS was used to get a target.
system.cpu.branchPred.RASIncorrect                 15                       # Number of incorrect RAS predictions.
system.cpu.branchPred.indirectLookups             685                       # Number of indirect predictor lookups.
system.cpu.branchPred.indirectHits                295                       # Number of indirect target hits.
system.cpu.branchPred.indirectMisses              390                       # Number of indirect misses.
system.cpu.branchPred.indirectMispredicted          165                       # Number of mispredicted indirect branches.
system.cpu.dcache.demand_hits::.cpu.data     51414519                       # number of demand (read+write) hits
system.cpu.dcache.demand_hits::total         51414519                       # number of demand (read+write) hits
system.cpu.dcache.overall_hits::.cpu.data     51415022                       # number of overall hits
system.cpu.dcache.overall_hits::total        51415022                       # number of overall hits
system.cpu.dcache.demand_misses::.cpu.data       737483                       # number of demand (read+write) misses
system.cpu.dcache.demand_misses::total         737483                       # number of demand (read+write) misses
system.cpu.dcache.overall_misses::.cpu.data       745399                       # number of overall misses
system.cpu.dcache.overall_misses::total        745399                       # number of overall misses
system.cpu.dcache.demand_miss_latency::.cpu.data  24693555000                       # number of demand (read+write) miss cycles
system.cpu.dcache.demand_miss_latency::total  24693555000                       # number of demand (read+write) miss cycles
system.cpu.dcache.overall_miss_latency::.cpu.data  24693555000                       # number of overall miss cycles
system.cpu.dcache.overall_miss_latency::total  24693555000                       # number of overall miss cycles
system.cpu.dcache.demand_accesses::.cpu.data     52152002                       # number of demand (read+write) accesses
system.cpu.dcache.demand_accesses::total     52152002                       # number of demand (read+write) accesses
system.cpu.dcache.overall_accesses::.cpu.data     52160421                       # number of overall (read+write) accesses
system.cpu.dcache.overall_accesses::total     52160421                       # number of overall (read+write) accesses
system.cpu.dcache.demand_miss_rate::.cpu.data     0.014141                       # miss rate for demand accesses
system.cpu.dcache.demand_miss_rate::total     0.014141                       # miss rate for demand accesses
system.cpu.dcache.overall_miss_rate::.cpu.data     0.014291                       # miss rate for overall accesses
system.cpu.dcache.overall_miss_rate::total     0.014291                       # miss rate for overall accesses
system.cpu.dcache.demand_avg_miss_latency::.cpu.data 33483.558265                       # average overall miss latency
system.cpu.dcache.demand_avg_miss_latency::total 33483.558265                       # average overall miss latency
system.cpu.dcache.overall_avg_miss_latency::.cpu.data 33127.969047                       # average overall miss latency
system.cpu.dcache.overall_avg_miss_latency::total 33127.969047                       # average overall miss latency
system.cpu.dcache.blocked_cycles::no_mshrs       212381                       # number of cycles access was blocked
system.cpu.dcache.blocked_cycles::no_targets            0                       # number of cycles access was blocked
system.cpu.dcache.blocked::no_mshrs              3249                       # number of cycles access was blocked
system.cpu.dcache.blocked::no_targets               0                       # number of cycles access was blocked
system.cpu.dcache.avg_blocked_cycles::no_mshrs    65.368113                       # average number of cycles each access was blocked
system.cpu.dcache.avg_blocked_cycles::no_targets          nan                       # average number of cycles each access was blocked
system.cpu.dcache.writebacks::.writebacks       607464                       # number of writebacks
system.cpu.dcache.writebacks::total            607464                       # number of writebacks
system.cpu.dcache.demand_mshr_hits::.cpu.data        60775                       # number of demand (read+write) MSHR hits
system.cpu.dcache.demand_mshr_hits::total        60775                       # number of demand (read+write) MSHR hits
system.cpu.dcache.overall_mshr_hits::.cpu.data        60775                       # number of overall MSHR hits
system.cpu.dcache.overall_mshr_hits::total        60775                       # number of overall MSHR hits
system.cpu.dcache.demand_mshr_misses::.cpu.data       676708                       # number of demand (read+write) MSHR misses
system.cpu.dcache.demand_mshr_misses::total       676708                       # number of demand (read+write) MSHR misses
system.cpu.dcache.overall_mshr_misses::.cpu.data       684617                       # number of overall MSHR misses
system.cpu.dcache.overall_mshr_misses::total       684617                       # number of overall MSHR misses
system.cpu.dcache.demand_mshr_miss_latency::.cpu.data  22419617500                       # number of demand (read+write) MSHR miss cycles
system.cpu.dcache.demand_mshr_miss_latency::total  22419617500                       # number of demand (read+write) MSHR miss cycles
system.cpu.dcache.overall_mshr_miss_latency::.cpu.data  23113580999                       # number of overall MSHR miss cycles
system.cpu.dcache.overall_mshr_miss_latency::total  23113580999                       # number of overall MSHR miss cycles
system.cpu.dcache.demand_mshr_miss_rate::.cpu.data     0.012976                       # mshr miss rate for demand accesses
system.cpu.dcache.demand_mshr_miss_rate::total     0.012976                       # mshr miss rate for demand accesses
system.cpu.dcache.overall_mshr_miss_rate::.cpu.data     0.013125                       # mshr miss rate for overall accesses
system.cpu.dcache.overall_mshr_miss_rate::total     0.013125                       # mshr miss rate for overall accesses
system.cpu.dcache.demand_avg_mshr_miss_latency::.cpu.data 33130.415925                       # average overall mshr miss latency
system.cpu.dcache.demand_avg_mshr_miss_latency::total 33130.415925                       # average overall mshr miss latency
system.cpu.dcache.overall_avg_mshr_miss_latency::.cpu.data 33761.330786                       # average overall mshr miss latency
system.cpu.dcache.overall_avg_mshr_miss_latency::total 33761.330786                       # average overall mshr miss latency
system.cpu.dcache.replacements                 683596                       # number of replacements
system.cpu.dcache.ReadReq_hits::.cpu.data     40784995                       # number of ReadReq hits
system.cpu.dcache.ReadReq_hits::total        40784995                       # number of ReadReq hits
system.cpu.dcache.ReadReq_misses::.cpu.data       389952                       # number of ReadReq misses
system.cpu.dcache.ReadReq_misses::total        389952                       # number of ReadReq misses
system.cpu.dcache.ReadReq_miss_latency::.cpu.data   9005826000                       # number of ReadReq miss cycles
system.cpu.dcache.ReadReq_miss_latency::total   9005826000                       # number of ReadReq miss cycles
system.cpu.dcache.ReadReq_accesses::.cpu.data     41174947                       # number of ReadReq accesses(hits+misses)
system.cpu.dcache.ReadReq_accesses::total     41174947                       # number of ReadReq accesses(hits+misses)
system.cpu.dcache.ReadReq_miss_rate::.cpu.data     0.009471                       # miss rate for ReadReq accesses
system.cpu.dcache.ReadReq_miss_rate::total     0.009471                       # miss rate for ReadReq accesses
system.cpu.dcache.ReadReq_avg_miss_latency::.cpu.data 23094.703964                       # average ReadReq miss latency
system.cpu.dcache.ReadReq_avg_miss_latency::total 23094.703964                       # average ReadReq miss latency
system.cpu.dcache.ReadReq_mshr_hits::.cpu.data          564                       # number of ReadReq MSHR hits
system.cpu.dcache.ReadReq_mshr_hits::total          564                       # number of ReadReq MSHR hits
system.cpu.dcache.ReadReq_mshr_misses::.cpu.data       389388                       # number of ReadReq MSHR misses
system.cpu.dcache.ReadReq_mshr_misses::total       389388                       # number of ReadReq MSHR misses
system.cpu.dcache.ReadReq_mshr_miss_latency::.cpu.data   8591698000                       # number of ReadReq MSHR miss cycles
system.cpu.dcache.ReadReq_mshr_miss_latency::total   8591698000                       # number of ReadReq MSHR miss cycles
system.cpu.dcache.ReadReq_mshr_miss_rate::.cpu.data     0.009457                       # mshr miss rate for ReadReq accesses
system.cpu.dcache.ReadReq_mshr_miss_rate::total     0.009457                       # mshr miss rate for ReadReq accesses
system.cpu.dcache.ReadReq_avg_mshr_miss_latency::.cpu.data 22064.619351                       # average ReadReq mshr miss latency
system.cpu.dcache.ReadReq_avg_mshr_miss_latency::total 22064.619351                       # average ReadReq mshr miss latency
system.cpu.dcache.WriteReq_hits::.cpu.data     10629524                       # number of WriteReq hits
system.cpu.dcache.WriteReq_hits::total       10629524                       # number of WriteReq hits
system.cpu.dcache.WriteReq_misses::.cpu.data       347531                       # number of WriteReq misses
system.cpu.dcache.WriteReq_misses::total       347531                       # number of WriteReq misses
system.cpu.dcache.WriteReq_miss_latency::.cpu.data  15687729000                       # number of WriteReq miss cycles
system.cpu.dcache.WriteReq_miss_latency::total  15687729000                       # number of WriteReq miss cycles
system.cpu.dcache.WriteReq_accesses::.cpu.data     10977055                       # number of WriteReq accesses(hits+misses)
system.cpu.dcache.WriteReq_accesses::total     10977055                       # number of WriteReq accesses(hits+misses)
system.cpu.dcache.WriteReq_miss_rate::.cpu.data     0.031660                       # miss rate for WriteReq accesses
system.cpu.dcache.WriteReq_miss_rate::total     0.031660                       # miss rate for WriteReq accesses
system.cpu.dcache.WriteReq_avg_miss_latency::.cpu.data 45140.516961                       # average WriteReq miss latency
system.cpu.dcache.WriteReq_avg_miss_latency::total 45140.516961                       # average WriteReq miss latency
system.cpu.dcache.WriteReq_mshr_hits::.cpu.data        60211                       # number of WriteReq MSHR hits
system.cpu.dcache.WriteReq_mshr_hits::total        60211                       # number of WriteReq MSHR hits
system.cpu.dcache.WriteReq_mshr_misses::.cpu.data       287320                       # number of WriteReq MSHR misses
system.cpu.dcache.WriteReq_mshr_misses::total       287320                       # number of WriteReq MSHR misses
system.cpu.dcache.WriteReq_mshr_miss_latency::.cpu.data  13827919500                       # number of WriteReq MSHR miss cycles
system.cpu.dcache.WriteReq_mshr_miss_latency::total  13827919500                       # number of WriteReq MSHR miss cycles
system.cpu.dcache.WriteReq_mshr_miss_rate::.cpu.data     0.026175                       # mshr miss rate for WriteReq accesses
system.cpu.dcache.WriteReq_mshr_miss_rate::total     0.026175                       # mshr miss rate for WriteReq accesses
system.cpu.dcache.WriteReq_avg_mshr_miss_latency::.cpu.data 48127.243144                       # average WriteReq mshr miss latency
system.cpu.dcache.WriteReq_avg_mshr_miss_latency::total 48127.243144                       # average WriteReq mshr miss latency
system.cpu.dcache.SoftPFReq_hits::.cpu.data          503                       # number of SoftPFReq hits
system.cpu.dcache.SoftPFReq_hits::total           503                       # number of SoftPFReq hits
system.cpu.dcache.SoftPFReq_misses::.cpu.data         7916                       # number of SoftPFReq misses
system.cpu.dcache.SoftPFReq_misses::total         7916                       # number of SoftPFReq misses
system.cpu.dcache.SoftPFReq_accesses::.cpu.data         8419                       # number of SoftPFReq accesses(hits+misses)
system.cpu.dcache.SoftPFReq_accesses::total         8419                       # number of SoftPFReq accesses(hits+misses)
system.cpu.dcache.SoftPFReq_miss_rate::.cpu.data     0.940254                       # miss rate for SoftPFReq accesses
system.cpu.dcache.SoftPFReq_miss_rate::total     0.940254                       # miss rate for SoftPFReq accesses
system.cpu.dcache.SoftPFReq_mshr_misses::.cpu.data         7909                       # number of SoftPFReq MSHR misses
system.cpu.dcache.SoftPFReq_mshr_misses::total         7909                       # number of SoftPFReq MSHR misses
system.cpu.dcache.SoftPFReq_mshr_miss_latency::.cpu.data    693963499                       # number of SoftPFReq MSHR miss cycles
system.cpu.dcache.SoftPFReq_mshr_miss_latency::total    693963499                       # number of SoftPFReq MSHR miss cycles
system.cpu.dcache.SoftPFReq_mshr_miss_rate::.cpu.data     0.939423                       # mshr miss rate for SoftPFReq accesses
system.cpu.dcache.SoftPFReq_mshr_miss_rate::total     0.939423                       # mshr miss rate for SoftPFReq accesses
system.cpu.dcache.SoftPFReq_avg_mshr_miss_latency::.cpu.data 87743.519914                       # average SoftPFReq mshr miss latency
system.cpu.dcache.SoftPFReq_avg_mshr_miss_latency::total 87743.519914                       # average SoftPFReq mshr miss latency
system.cpu.dcache.LoadLockedReq_hits::.cpu.data           34                       # number of LoadLockedReq hits
system.cpu.dcache.LoadLockedReq_hits::total           34                       # number of LoadLockedReq hits
system.cpu.dcache.LoadLockedReq_misses::.cpu.data            4                       # number of LoadLockedReq misses
system.cpu.dcache.LoadLockedReq_misses::total            4                       # number of LoadLockedReq misses
system.cpu.dcache.LoadLockedReq_miss_latency::.cpu.data       244500                       # number of LoadLockedReq miss cycles
system.cpu.dcache.LoadLockedReq_miss_latency::total       244500                       # number of LoadLockedReq miss cycles
system.cpu.dcache.LoadLockedReq_accesses::.cpu.data           38                       # number of LoadLockedReq accesses(hits+misses)
system.cpu.dcache.LoadLockedReq_accesses::total           38                       # number of LoadLockedReq accesses(hits+misses)
system.cpu.dcache.LoadLockedReq_miss_rate::.cpu.data     0.105263                       # miss rate for LoadLockedReq accesses
system.cpu.dcache.LoadLockedReq_miss_rate::total     0.105263                       # miss rate for LoadLockedReq accesses
system.cpu.dcache.LoadLockedReq_avg_miss_latency::.cpu.data        61125                       # average LoadLockedReq miss latency
system.cpu.dcache.LoadLockedReq_avg_miss_latency::total        61125                       # average LoadLockedReq miss latency
system.cpu.dcache.LoadLockedReq_mshr_misses::.cpu.data            4                       # number of LoadLockedReq MSHR misses
system.cpu.dcache.LoadLockedReq_mshr_misses::total            4                       # number of LoadLockedReq MSHR misses
system.cpu.dcache.LoadLockedReq_mshr_miss_latency::.cpu.data       240500                       # number of LoadLockedReq MSHR miss cycles
system.cpu.dcache.LoadLockedReq_mshr_miss_latency::total       240500                       # number of LoadLockedReq MSHR miss cycles
system.cpu.dcache.LoadLockedReq_mshr_miss_rate::.cpu.data     0.105263                       # mshr miss rate for LoadLockedReq accesses
system.cpu.dcache.LoadLockedReq_mshr_miss_rate::total     0.105263                       # mshr miss rate for LoadLockedReq accesses
system.cpu.dcache.LoadLockedReq_avg_mshr_miss_latency::.cpu.data        60125                       # average LoadLockedReq mshr miss latency
system.cpu.dcache.LoadLockedReq_avg_mshr_miss_latency::total        60125                       # average LoadLockedReq mshr miss latency
system.cpu.dcache.StoreCondReq_hits::.cpu.data           38                       # number of StoreCondReq hits
system.cpu.dcache.StoreCondReq_hits::total           38                       # number of StoreCondReq hits
system.cpu.dcache.StoreCondReq_accesses::.cpu.data           38                       # number of StoreCondReq accesses(hits+misses)
system.cpu.dcache.StoreCondReq_accesses::total           38                       # number of StoreCondReq accesses(hits+misses)
system.cpu.dcache.power_state.pwrStateResidencyTicks::UNDEFINED  83828546000                       # Cumulative time (in ticks) in various power states
system.cpu.dcache.tags.tagsinuse          1007.747840                       # Cycle average of tags in use
system.cpu.dcache.tags.total_refs            52099714                       # Total number of references to valid blocks.
system.cpu.dcache.tags.sampled_refs            684620                       # Sample count of references to valid blocks.
system.cpu.dcache.tags.avg_refs             76.100193                       # Average number of references to valid blocks.
system.cpu.dcache.tags.warmup_cycle            176500                       # Cycle when the warmup percentage was hit.
system.cpu.dcache.tags.occ_blocks::.cpu.data  1007.747840                       # Average occupied blocks per requestor
system.cpu.dcache.tags.occ_percent::.cpu.data     0.984129                       # Average percentage of cache occupancy
system.cpu.dcache.tags.occ_percent::total     0.984129                       # Average percentage of cache occupancy
system.cpu.dcache.tags.occ_task_id_blocks::1024         1024                       # Occupied blocks per task id
system.cpu.dcache.tags.age_task_id_blocks_1024::0          204                       # Occupied blocks per task id
system.cpu.dcache.tags.age_task_id_blocks_1024::1          307                       # Occupied blocks per task id
system.cpu.dcache.tags.age_task_id_blocks_1024::2          511                       # Occupied blocks per task id
system.cpu.dcache.tags.age_task_id_blocks_1024::3            2                       # Occupied blocks per task id
system.cpu.dcache.tags.occ_task_id_percent::1024            1                       # Percentage of cache occupancy per task id
system.cpu.dcache.tags.tag_accesses         105005614                       # Number of tag accesses
system.cpu.dcache.tags.data_accesses        105005614                       # Number of data accesses
system.cpu.dcache.tags.power_state.pwrStateResidencyTicks::UNDEFINED  83828546000                       # Cumulative time (in ticks) in various power states
system.cpu.dtb.instHits                             0                       # ITB inst hits
system.cpu.dtb.instMisses                           0                       # ITB inst misses
system.cpu.dtb.readHits                             0                       # DTB read hits
system.cpu.dtb.readMisses                           0                       # DTB read misses
system.cpu.dtb.writeHits                            0                       # DTB write hits
system.cpu.dtb.writeMisses                          0                       # DTB write misses
system.cpu.dtb.inserts                              0                       # Number of times an entry is inserted into the TLB
system.cpu.dtb.flushTlb                             0                       # Number of times complete TLB was flushed
system.cpu.dtb.flushTlbMva                          0                       # Number of times TLB was flushed by MVA
system.cpu.dtb.flushTlbMvaAsid                      0                       # Number of times TLB was flushed by MVA & ASID
system.cpu.dtb.flushTlbAsid                         0                       # Number of times TLB was flushed by ASID
system.cpu.dtb.flushedEntries                       0                       # Number of entries that have been flushed from TLB
system.cpu.dtb.alignFaults                          0                       # Number of TLB faults due to alignment restrictions
system.cpu.dtb.prefetchFaults                       0                       # Number of TLB faults due to prefetch
system.cpu.dtb.domainFaults                         0                       # Number of TLB faults due to domain restrictions
system.cpu.dtb.permsFaults                          0                       # Number of TLB faults due to permissions restrictions
system.cpu.dtb.readAccesses                         0                       # DTB read accesses
system.cpu.dtb.writeAccesses                        0                       # DTB write accesses
system.cpu.dtb.instAccesses                         0                       # ITB inst accesses
system.cpu.dtb.hits                                 0                       # Total TLB (inst and data) hits
system.cpu.dtb.misses                               0                       # Total TLB (inst and data) misses
system.cpu.dtb.accesses                             0                       # Total TLB (inst and data) accesses
system.cpu.dtb.stage2_mmu.stage2_tlb.instHits            0                       # ITB inst hits
system.cpu.dtb.stage2_mmu.stage2_tlb.instMisses            0                       # ITB inst misses
system.cpu.dtb.stage2_mmu.stage2_tlb.readHits            0                       # DTB read hits
system.cpu.dtb.stage2_mmu.stage2_tlb.readMisses            0                       # DTB read misses
system.cpu.dtb.stage2_mmu.stage2_tlb.writeHits            0                       # DTB write hits
system.cpu.dtb.stage2_mmu.stage2_tlb.writeMisses            0                       # DTB write misses
system.cpu.dtb.stage2_mmu.stage2_tlb.inserts            0                       # Number of times an entry is inserted into the TLB
system.cpu.dtb.stage2_mmu.stage2_tlb.flushTlb            0                       # Number of times complete TLB was flushed
system.cpu.dtb.stage2_mmu.stage2_tlb.flushTlbMva            0                       # Number of times TLB was flushed by MVA
system.cpu.dtb.stage2_mmu.stage2_tlb.flushTlbMvaAsid            0                       # Number of times TLB was flushed by MVA & ASID
system.cpu.dtb.stage2_mmu.stage2_tlb.flushTlbAsid            0                       # Number of times TLB was flushed by ASID
system.cpu.dtb.stage2_mmu.stage2_tlb.flushedEntries            0                       # Number of entries that have been flushed from TLB
system.cpu.dtb.stage2_mmu.stage2_tlb.alignFaults            0                       # Number of TLB faults due to alignment restrictions
system.cpu.dtb.stage2_mmu.stage2_tlb.prefetchFaults            0                       # Number of TLB faults due to prefetch
system.cpu.dtb.stage2_mmu.stage2_tlb.domainFaults            0                       # Number of TLB faults due to domain restrictions
system.cpu.dtb.stage2_mmu.stage2_tlb.permsFaults            0                       # Number of TLB faults due to permissions restrictions
system.cpu.dtb.stage2_mmu.stage2_tlb.readAccesses            0                       # DTB read accesses
system.cpu.dtb.stage2_mmu.stage2_tlb.writeAccesses            0                       # DTB write accesses
system.cpu.dtb.stage2_mmu.stage2_tlb.instAccesses            0                       # ITB inst accesses
system.cpu.dtb.stage2_mmu.stage2_tlb.hits            0                       # Total TLB (inst and data) hits
system.cpu.dtb.stage2_mmu.stage2_tlb.misses            0                       # Total TLB (inst and data) misses
system.cpu.dtb.stage2_mmu.stage2_tlb.accesses            0                       # Total TLB (inst and data) accesses
system.cpu.dtb.stage2_mmu.stage2_tlb.walker.walks            0                       # Table walker walks requested
system.cpu.dtb.stage2_mmu.stage2_tlb.walker.requestOrigin_Requested::Data            0                       # Table walker requests started/completed, data/inst
system.cpu.dtb.stage2_mmu.stage2_tlb.walker.requestOrigin_Requested::Inst            0                       # Table walker requests started/completed, data/inst
system.cpu.dtb.stage2_mmu.stage2_tlb.walker.requestOrigin_Requested::total            0                       # Table walker requests started/completed, data/inst
system.cpu.dtb.stage2_mmu.stage2_tlb.walker.requestOrigin_Completed::Data            0                       # Table walker requests started/completed, data/inst
system.cpu.dtb.stage2_mmu.stage2_tlb.walker.requestOrigin_Completed::Inst            0                       # Table walker requests started/completed, data/inst
system.cpu.dtb.stage2_mmu.stage2_tlb.walker.requestOrigin_Completed::total            0                       # Table walker requests started/completed, data/inst
system.cpu.dtb.stage2_mmu.stage2_tlb.walker.requestOrigin::total            0                       # Table walker requests started/completed, data/inst
system.cpu.dtb.stage2_mmu.stage2_tlb.walker.power_state.pwrStateResidencyTicks::UNDEFINED  83828546000                       # Cumulative time (in ticks) in various power states
system.cpu.dtb.walker.walks                         0                       # Table walker walks requested
system.cpu.dtb.walker.requestOrigin_Requested::Data            0                       # Table walker requests started/completed, data/inst
system.cpu.dtb.walker.requestOrigin_Requested::Inst            0                       # Table walker requests started/completed, data/inst
system.cpu.dtb.walker.requestOrigin_Requested::total            0                       # Table walker requests started/completed, data/inst
system.cpu.dtb.walker.requestOrigin_Completed::Data            0                       # Table walker requests started/completed, data/inst
system.cpu.dtb.walker.requestOrigin_Completed::Inst            0                       # Table walker requests started/completed, data/inst
system.cpu.dtb.walker.requestOrigin_Completed::total            0                       # Table walker requests started/completed, data/inst
system.cpu.dtb.walker.requestOrigin::total            0                       # Table walker requests started/completed, data/inst
system.cpu.dtb.walker.power_state.pwrStateResidencyTicks::UNDEFINED  83828546000                       # Cumulative time (in ticks) in various power states
system.cpu.fetch2.intInstructions            42703761                       # Number of integer instructions successfully decoded
system.cpu.fetch2.fpInstructions                    0                       # Number of floating point instructions successfully decoded
system.cpu.fetch2.vecInstructions                   0                       # Number of SIMD instructions successfully decoded
system.cpu.fetch2.loadInstructions           43555091                       # Number of memory load instructions successfully decoded
system.cpu.fetch2.storeInstructions          11057170                       # Number of memory store instructions successfully decoded
system.cpu.fetch2.amoInstructions                   0                       # Number of memory atomic instructions successfully decoded
system.cpu.icache.demand_hits::.cpu.inst     10235641                       # number of demand (read+write) hits
system.cpu.icache.demand_hits::total         10235641                       # number of demand (read+write) hits
system.cpu.icache.overall_hits::.cpu.inst     10235641                       # number of overall hits
system.cpu.icache.overall_hits::total        10235641                       # number of overall hits
system.cpu.icache.demand_misses::.cpu.inst          685                       # number of demand (read+write) misses
system.cpu.icache.demand_misses::total            685                       # number of demand (read+write) misses
system.cpu.icache.overall_misses::.cpu.inst          685                       # number of overall misses
system.cpu.icache.overall_misses::total           685                       # number of overall misses
system.cpu.icache.demand_miss_latency::.cpu.inst     53319500                       # number of demand (read+write) miss cycles
system.cpu.icache.demand_miss_latency::total     53319500                       # number of demand (read+write) miss cycles
system.cpu.icache.overall_miss_latency::.cpu.inst     53319500                       # number of overall miss cycles
system.cpu.icache.overall_miss_latency::total     53319500                       # number of overall miss cycles
system.cpu.icache.demand_accesses::.cpu.inst     10236326                       # number of demand (read+write) accesses
system.cpu.icache.demand_accesses::total     10236326                       # number of demand (read+write) accesses
system.cpu.icache.overall_accesses::.cpu.inst     10236326                       # number of overall (read+write) accesses
system.cpu.icache.overall_accesses::total     10236326                       # number of overall (read+write) accesses
system.cpu.icache.demand_miss_rate::.cpu.inst     0.000067                       # miss rate for demand accesses
system.cpu.icache.demand_miss_rate::total     0.000067                       # miss rate for demand accesses
system.cpu.icache.overall_miss_rate::.cpu.inst     0.000067                       # miss rate for overall accesses
system.cpu.icache.overall_miss_rate::total     0.000067                       # miss rate for overall accesses
system.cpu.icache.demand_avg_miss_latency::.cpu.inst 77838.686131                       # average overall miss latency
system.cpu.icache.demand_avg_miss_latency::total 77838.686131                       # average overall miss latency
system.cpu.icache.overall_avg_miss_latency::.cpu.inst 77838.686131                       # average overall miss latency
system.cpu.icache.overall_avg_miss_latency::total 77838.686131                       # average overall miss latency
system.cpu.icache.blocked_cycles::no_mshrs            0                       # number of cycles access was blocked
system.cpu.icache.blocked_cycles::no_targets            0                       # number of cycles access was blocked
system.cpu.icache.blocked::no_mshrs                 0                       # number of cycles access was blocked
system.cpu.icache.blocked::no_targets               0                       # number of cycles access was blocked
system.cpu.icache.avg_blocked_cycles::no_mshrs          nan                       # average number of cycles each access was blocked
system.cpu.icache.avg_blocked_cycles::no_targets          nan                       # average number of cycles each access was blocked
system.cpu.icache.writebacks::.writebacks           30                       # number of writebacks
system.cpu.icache.writebacks::total                30                       # number of writebacks
system.cpu.icache.demand_mshr_misses::.cpu.inst          685                       # number of demand (read+write) MSHR misses
system.cpu.icache.demand_mshr_misses::total          685                       # number of demand (read+write) MSHR misses
system.cpu.icache.overall_mshr_misses::.cpu.inst          685                       # number of overall MSHR misses
system.cpu.icache.overall_mshr_misses::total          685                       # number of overall MSHR misses
system.cpu.icache.demand_mshr_miss_latency::.cpu.inst     52634500                       # number of demand (read+write) MSHR miss cycles
system.cpu.icache.demand_mshr_miss_latency::total     52634500                       # number of demand (read+write) MSHR miss cycles
system.cpu.icache.overall_mshr_miss_latency::.cpu.inst     52634500                       # number of overall MSHR miss cycles
system.cpu.icache.overall_mshr_miss_latency::total     52634500                       # number of overall MSHR miss cycles
system.cpu.icache.demand_mshr_miss_rate::.cpu.inst     0.000067                       # mshr miss rate for demand accesses
system.cpu.icache.demand_mshr_miss_rate::total     0.000067                       # mshr miss rate for demand accesses
system.cpu.icache.overall_mshr_miss_rate::.cpu.inst     0.000067                       # mshr miss rate for overall accesses
system.cpu.icache.overall_mshr_miss_rate::total     0.000067                       # mshr miss rate for overall accesses
system.cpu.icache.demand_avg_mshr_miss_latency::.cpu.inst 76838.686131                       # average overall mshr miss latency
system.cpu.icache.demand_avg_mshr_miss_latency::total 76838.686131                       # average overall mshr miss latency
system.cpu.icache.overall_avg_mshr_miss_latency::.cpu.inst 76838.686131                       # average overall mshr miss latency
system.cpu.icache.overall_avg_mshr_miss_latency::total 76838.686131                       # average overall mshr miss latency
system.cpu.icache.replacements                     30                       # number of replacements
system.cpu.icache.ReadReq_hits::.cpu.inst     10235641                       # number of ReadReq hits
system.cpu.icache.ReadReq_hits::total        10235641                       # number of ReadReq hits
system.cpu.icache.ReadReq_misses::.cpu.inst          685                       # number of ReadReq misses
system.cpu.icache.ReadReq_misses::total           685                       # number of ReadReq misses
system.cpu.icache.ReadReq_miss_latency::.cpu.inst     53319500                       # number of ReadReq miss cycles
system.cpu.icache.ReadReq_miss_latency::total     53319500                       # number of ReadReq miss cycles
system.cpu.icache.ReadReq_accesses::.cpu.inst     10236326                       # number of ReadReq accesses(hits+misses)
system.cpu.icache.ReadReq_accesses::total     10236326                       # number of ReadReq accesses(hits+misses)
system.cpu.icache.ReadReq_miss_rate::.cpu.inst     0.000067                       # miss rate for ReadReq accesses
system.cpu.icache.ReadReq_miss_rate::total     0.000067                       # miss rate for ReadReq accesses
system.cpu.icache.ReadReq_avg_miss_latency::.cpu.inst 77838.686131                       # average ReadReq miss latency
system.cpu.icache.ReadReq_avg_miss_latency::total 77838.686131                       # average ReadReq miss latency
system.cpu.icache.ReadReq_mshr_misses::.cpu.inst          685                       # number of ReadReq MSHR misses
system.cpu.icache.ReadReq_mshr_misses::total          685                       # number of ReadReq MSHR misses
system.cpu.icache.ReadReq_mshr_miss_latency::.cpu.inst     52634500                       # number of ReadReq MSHR miss cycles
system.cpu.icache.ReadReq_mshr_miss_latency::total     52634500                       # number of ReadReq MSHR miss cycles
system.cpu.icache.ReadReq_mshr_miss_rate::.cpu.inst     0.000067                       # mshr miss rate for ReadReq accesses
system.cpu.icache.ReadReq_mshr_miss_rate::total     0.000067                       # mshr miss rate for ReadReq accesses
system.cpu.icache.ReadReq_avg_mshr_miss_latency::.cpu.inst 76838.686131                       # average ReadReq mshr miss latency
system.cpu.icache.ReadReq_avg_mshr_miss_latency::total 76838.686131                       # average ReadReq mshr miss latency
system.cpu.icache.power_state.pwrStateResidencyTicks::UNDEFINED  83828546000                       # Cumulative time (in ticks) in various power states
system.cpu.icache.tags.tagsinuse           527.289257                       # Cycle average of tags in use
system.cpu.icache.tags.total_refs            10236326                       # Total number of references to valid blocks.
system.cpu.icache.tags.sampled_refs               685                       # Sample count of references to valid blocks.
system.cpu.icache.tags.avg_refs          14943.541606                       # Average number of references to valid blocks.
system.cpu.icache.tags.warmup_cycle             87500                       # Cycle when the warmup percentage was hit.
system.cpu.icache.tags.occ_blocks::.cpu.inst   527.289257                       # Average occupied blocks per requestor
system.cpu.icache.tags.occ_percent::.cpu.inst     0.257465                       # Average percentage of cache occupancy
system.cpu.icache.tags.occ_percent::total     0.257465                       # Average percentage of cache occupancy
system.cpu.icache.tags.occ_task_id_blocks::1024          655                       # Occupied blocks per task id
system.cpu.icache.tags.age_task_id_blocks_1024::3          107                       # Occupied blocks per task id
system.cpu.icache.tags.age_task_id_blocks_1024::4          548                       # Occupied blocks per task id
system.cpu.icache.tags.occ_task_id_percent::1024     0.319824                       # Percentage of cache occupancy per task id
system.cpu.icache.tags.tag_accesses          20473337                       # Number of tag accesses
system.cpu.icache.tags.data_accesses         20473337                       # Number of data accesses
system.cpu.icache.tags.power_state.pwrStateResidencyTicks::UNDEFINED  83828546000                       # Cumulative time (in ticks) in various power states
system.cpu.itb.instHits                             0                       # ITB inst hits
system.cpu.itb.instMisses                           0                       # ITB inst misses
system.cpu.itb.readHits                             0                       # DTB read hits
system.cpu.itb.readMisses                           0                       # DTB read misses
system.cpu.itb.writeHits                            0                       # DTB write hits
system.cpu.itb.writeMisses                          0                       # DTB write misses
system.cpu.itb.inserts                              0                       # Number of times an entry is inserted into the TLB
system.cpu.itb.flushTlb                             0                       # Number of times complete TLB was flushed
system.cpu.itb.flushTlbMva                          0                       # Number of times TLB was flushed by MVA
system.cpu.itb.flushTlbMvaAsid                      0                       # Number of times TLB was flushed by MVA & ASID
system.cpu.itb.flushTlbAsid                         0                       # Number of times TLB was flushed by ASID
system.cpu.itb.flushedEntries                       0                       # Number of entries that have been flushed from TLB
system.cpu.itb.alignFaults                          0                       # Number of TLB faults due to alignment restrictions
system.cpu.itb.prefetchFaults                       0                       # Number of TLB faults due to prefetch
system.cpu.itb.domainFaults                         0                       # Number of TLB faults due to domain restrictions
system.cpu.itb.permsFaults                          0                       # Number of TLB faults due to permissions restrictions
system.cpu.itb.readAccesses                         0                       # DTB read accesses
system.cpu.itb.writeAccesses                        0                       # DTB write accesses
system.cpu.itb.instAccesses                         0                       # ITB inst accesses
system.cpu.itb.hits                                 0                       # Total TLB (inst and data) hits
system.cpu.itb.misses                               0                       # Total TLB (inst and data) misses
system.cpu.itb.accesses                             0                       # Total TLB (inst and data) accesses
system.cpu.itb.stage2_mmu.stage2_tlb.instHits            0                       # ITB inst hits
system.cpu.itb.stage2_mmu.stage2_tlb.instMisses            0                       # ITB inst misses
system.cpu.itb.stage2_mmu.stage2_tlb.readHits            0                       # DTB read hits
system.cpu.itb.stage2_mmu.stage2_tlb.readMisses            0                       # DTB read misses
system.cpu.itb.stage2_mmu.stage2_tlb.writeHits            0                       # DTB write hits
system.cpu.itb.stage2_mmu.stage2_tlb.writeMisses            0                       # DTB write misses
system.cpu.itb.stage2_mmu.stage2_tlb.inserts            0                       # Number of times an entry is inserted into the TLB
system.cpu.itb.stage2_mmu.stage2_tlb.flushTlb            0                       # Number of times complete TLB was flushed
system.cpu.itb.stage2_mmu.stage2_tlb.flushTlbMva            0                       # Number of times TLB was flushed by MVA
system.cpu.itb.stage2_mmu.stage2_tlb.flushTlbMvaAsid            0                       # Number of times TLB was flushed by MVA & ASID
system.cpu.itb.stage2_mmu.stage2_tlb.flushTlbAsid            0                       # Number of times TLB was flushed by ASID
system.cpu.itb.stage2_mmu.stage2_tlb.flushedEntries            0                       # Number of entries that have been flushed from TLB
system.cpu.itb.stage2_mmu.stage2_tlb.alignFaults            0                       # Number of TLB faults due to alignment restrictions
system.cpu.itb.stage2_mmu.stage2_tlb.prefetchFaults            0                       # Number of TLB faults due to prefetch
system.cpu.itb.stage2_mmu.stage2_tlb.domainFaults            0                       # Number of TLB faults due to domain restrictions
system.cpu.itb.stage2_mmu.stage2_tlb.permsFaults            0                       # Number of TLB faults due to permissions restrictions
system.cpu.itb.stage2_mmu.stage2_tlb.readAccesses            0                       # DTB read accesses
system.cpu.itb.stage2_mmu.stage2_tlb.writeAccesses            0                       # DTB write accesses
system.cpu.itb.stage2_mmu.stage2_tlb.instAccesses            0                       # ITB inst accesses
system.cpu.itb.stage2_mmu.stage2_tlb.hits            0                       # Total TLB (inst and data) hits
system.cpu.itb.stage2_mmu.stage2_tlb.misses            0                       # Total TLB (inst and data) misses
system.cpu.itb.stage2_mmu.stage2_tlb.accesses            0                       # Total TLB (inst and data) accesses
system.cpu.itb.stage2_mmu.stage2_tlb.walker.walks            0                       # Table walker walks requested
system.cpu.itb.stage2_mmu.stage2_tlb.walker.requestOrigin_Requested::Data            0                       # Table walker requests started/completed, data/inst
system.cpu.itb.stage2_mmu.stage2_tlb.walker.requestOrigin_Requested::Inst            0                       # Table walker requests started/completed, data/inst
system.cpu.itb.stage2_mmu.stage2_tlb.walker.requestOrigin_Requested::total            0                       # Table walker requests started/completed, data/inst
system.cpu.itb.stage2_mmu.stage2_tlb.walker.requestOrigin_Completed::Data            0                       # Table walker requests started/completed, data/inst
system.cpu.itb.stage2_mmu.stage2_tlb.walker.requestOrigin_Completed::Inst            0                       # Table walker requests started/completed, data/inst
system.cpu.itb.stage2_mmu.stage2_tlb.walker.requestOrigin_Completed::total            0                       # Table walker requests started/completed, data/inst
system.cpu.itb.stage2_mmu.stage2_tlb.walker.requestOrigin::total            0                       # Table walker requests started/completed, data/inst
system.cpu.itb.stage2_mmu.stage2_tlb.walker.power_state.pwrStateResidencyTicks::UNDEFINED  83828546000                       # Cumulative time (in ticks) in various power states
system.cpu.itb.walker.walks                         0                       # Table walker walks requested
system.cpu.itb.walker.requestOrigin_Requested::Data            0                       # Table walker requests started/completed, data/inst
system.cpu.itb.walker.requestOrigin_Requested::Inst            0                       # Table walker requests started/completed, data/inst
system.cpu.itb.walker.requestOrigin_Requested::total            0                       # Table walker requests started/completed, data/inst
system.cpu.itb.walker.requestOrigin_Completed::Data            0                       # Table walker requests started/completed, data/inst
system.cpu.itb.walker.requestOrigin_Completed::Inst            0                       # Table walker requests started/completed, data/inst
system.cpu.itb.walker.requestOrigin_Completed::total            0                       # Table walker requests started/completed, data/inst
system.cpu.itb.walker.requestOrigin::total            0                       # Table walker requests started/completed, data/inst
system.cpu.itb.walker.power_state.pwrStateResidencyTicks::UNDEFINED  83828546000                       # Cumulative time (in ticks) in various power states
system.cpu.power_state.pwrStateResidencyTicks::ON  83828546000                       # Cumulative time (in ticks) in various power states
system.cpu.thread_0.numInsts                100000000                       # Number of Instructions committed
system.cpu.thread_0.numOps                  100199496                       # Number of Ops committed
system.cpu.thread_0.numMemRefs                      0                       # Number of Memory References
system.cpu_clk_domain.clock                       500                       # Clock period in ticks
system.cpu_voltage_domain.voltage                   1                       # Voltage in Volts
system.l2.demand_hits::.cpu.inst                   25                       # number of demand (read+write) hits
system.l2.demand_hits::.cpu.data               483284                       # number of demand (read+write) hits
system.l2.demand_hits::total                   483309                       # number of demand (read+write) hits
system.l2.overall_hits::.cpu.inst                  25                       # number of overall hits
system.l2.overall_hits::.cpu.data              483284                       # number of overall hits
system.l2.overall_hits::total                  483309                       # number of overall hits
system.l2.demand_misses::.cpu.inst                660                       # number of demand (read+write) misses
system.l2.demand_misses::.cpu.data             201337                       # number of demand (read+write) misses
system.l2.demand_misses::total                 201997                       # number of demand (read+write) misses
system.l2.overall_misses::.cpu.inst               660                       # number of overall misses
system.l2.overall_misses::.cpu.data            201337                       # number of overall misses
system.l2.overall_misses::total                201997                       # number of overall misses
system.l2.demand_miss_latency::.cpu.inst     51327000                       # number of demand (read+write) miss cycles
system.l2.demand_miss_latency::.cpu.data  17007925000                       # number of demand (read+write) miss cycles
system.l2.demand_miss_latency::total      17059252000                       # number of demand (read+write) miss cycles
system.l2.overall_miss_latency::.cpu.inst     51327000                       # number of overall miss cycles
system.l2.overall_miss_latency::.cpu.data  17007925000                       # number of overall miss cycles
system.l2.overall_miss_latency::total     17059252000                       # number of overall miss cycles
system.l2.demand_accesses::.cpu.inst              685                       # number of demand (read+write) accesses
system.l2.demand_accesses::.cpu.data           684621                       # number of demand (read+write) accesses
system.l2.demand_accesses::total               685306                       # number of demand (read+write) accesses
system.l2.overall_accesses::.cpu.inst             685                       # number of overall (read+write) accesses
system.l2.overall_accesses::.cpu.data          684621                       # number of overall (read+write) accesses
system.l2.overall_accesses::total              685306                       # number of overall (read+write) accesses
system.l2.demand_miss_rate::.cpu.inst        0.963504                       # miss rate for demand accesses
system.l2.demand_miss_rate::.cpu.data        0.294085                       # miss rate for demand accesses
system.l2.demand_miss_rate::total            0.294754                       # miss rate for demand accesses
system.l2.overall_miss_rate::.cpu.inst       0.963504                       # miss rate for overall accesses
system.l2.overall_miss_rate::.cpu.data       0.294085                       # miss rate for overall accesses
system.l2.overall_miss_rate::total           0.294754                       # miss rate for overall accesses
system.l2.demand_avg_miss_latency::.cpu.inst 77768.181818                       # average overall miss latency
system.l2.demand_avg_miss_latency::.cpu.data 84474.910225                       # average overall miss latency
system.l2.demand_avg_miss_latency::total 84452.996827                       # average overall miss latency
system.l2.overall_avg_miss_latency::.cpu.inst 77768.181818                       # average overall miss latency
system.l2.overall_avg_miss_latency::.cpu.data 84474.910225                       # average overall miss latency
system.l2.overall_avg_miss_latency::total 84452.996827                       # average overall miss latency
system.l2.blocked_cycles::no_mshrs                  0                       # number of cycles access was blocked
system.l2.blocked_cycles::no_targets                0                       # number of cycles access was blocked
system.l2.blocked::no_mshrs                         0                       # number of cycles access was blocked
system.l2.blocked::no_targets                       0                       # number of cycles access was blocked
system.l2.avg_blocked_cycles::no_mshrs            nan                       # average number of cycles each access was blocked
system.l2.avg_blocked_cycles::no_targets          nan                       # average number of cycles each access was blocked
system.l2.writebacks::.writebacks              111191                       # number of writebacks
system.l2.writebacks::total                    111191                       # number of writebacks
system.l2.demand_mshr_hits::.cpu.data               5                       # number of demand (read+write) MSHR hits
system.l2.demand_mshr_hits::total                   5                       # number of demand (read+write) MSHR hits
system.l2.overall_mshr_hits::.cpu.data              5                       # number of overall MSHR hits
system.l2.overall_mshr_hits::total                  5                       # number of overall MSHR hits
system.l2.demand_mshr_misses::.cpu.inst           660                       # number of demand (read+write) MSHR misses
system.l2.demand_mshr_misses::.cpu.data        201332                       # number of demand (read+write) MSHR misses
system.l2.demand_mshr_misses::total            201992                       # number of demand (read+write) MSHR misses
system.l2.overall_mshr_misses::.cpu.inst          660                       # number of overall MSHR misses
system.l2.overall_mshr_misses::.cpu.data       201332                       # number of overall MSHR misses
system.l2.overall_mshr_misses::total           201992                       # number of overall MSHR misses
system.l2.demand_mshr_miss_latency::.cpu.inst     44727000                       # number of demand (read+write) MSHR miss cycles
system.l2.demand_mshr_miss_latency::.cpu.data  14994287000                       # number of demand (read+write) MSHR miss cycles
system.l2.demand_mshr_miss_latency::total  15039014000                       # number of demand (read+write) MSHR miss cycles
system.l2.overall_mshr_miss_latency::.cpu.inst     44727000                       # number of overall MSHR miss cycles
system.l2.overall_mshr_miss_latency::.cpu.data  14994287000                       # number of overall MSHR miss cycles
system.l2.overall_mshr_miss_latency::total  15039014000                       # number of overall MSHR miss cycles
system.l2.demand_mshr_miss_rate::.cpu.inst     0.963504                       # mshr miss rate for demand accesses
system.l2.demand_mshr_miss_rate::.cpu.data     0.294078                       # mshr miss rate for demand accesses
system.l2.demand_mshr_miss_rate::total       0.294747                       # mshr miss rate for demand accesses
system.l2.overall_mshr_miss_rate::.cpu.inst     0.963504                       # mshr miss rate for overall accesses
system.l2.overall_mshr_miss_rate::.cpu.data     0.294078                       # mshr miss rate for overall accesses
system.l2.overall_mshr_miss_rate::total      0.294747                       # mshr miss rate for overall accesses
system.l2.demand_avg_mshr_miss_latency::.cpu.inst 67768.181818                       # average overall mshr miss latency
system.l2.demand_avg_mshr_miss_latency::.cpu.data 74475.428645                       # average overall mshr miss latency
system.l2.demand_avg_mshr_miss_latency::total 74453.513010                       # average overall mshr miss latency
system.l2.overall_avg_mshr_miss_latency::.cpu.inst 67768.181818                       # average overall mshr miss latency
system.l2.overall_avg_mshr_miss_latency::.cpu.data 74475.428645                       # average overall mshr miss latency
system.l2.overall_avg_mshr_miss_latency::total 74453.513010                       # average overall mshr miss latency
system.l2.replacements                         169240                       # number of replacements
system.l2.WritebackDirty_hits::.writebacks       607464                       # number of WritebackDirty hits
system.l2.WritebackDirty_hits::total           607464                       # number of WritebackDirty hits
system.l2.WritebackDirty_accesses::.writebacks       607464                       # number of WritebackDirty accesses(hits+misses)
system.l2.WritebackDirty_accesses::total       607464                       # number of WritebackDirty accesses(hits+misses)
system.l2.WritebackClean_hits::.writebacks           28                       # number of WritebackClean hits
system.l2.WritebackClean_hits::total               28                       # number of WritebackClean hits
system.l2.WritebackClean_accesses::.writebacks           28                       # number of WritebackClean accesses(hits+misses)
system.l2.WritebackClean_accesses::total           28                       # number of WritebackClean accesses(hits+misses)
system.l2.ReadExReq_hits::.cpu.data            151068                       # number of ReadExReq hits
system.l2.ReadExReq_hits::total                151068                       # number of ReadExReq hits
system.l2.ReadExReq_misses::.cpu.data          136252                       # number of ReadExReq misses
system.l2.ReadExReq_misses::total              136252                       # number of ReadExReq misses
system.l2.ReadExReq_miss_latency::.cpu.data  11809223000                       # number of ReadExReq miss cycles
system.l2.ReadExReq_miss_latency::total   11809223000                       # number of ReadExReq miss cycles
system.l2.ReadExReq_accesses::.cpu.data        287320                       # number of ReadExReq accesses(hits+misses)
system.l2.ReadExReq_accesses::total            287320                       # number of ReadExReq accesses(hits+misses)
system.l2.ReadExReq_miss_rate::.cpu.data     0.474217                       # miss rate for ReadExReq accesses
system.l2.ReadExReq_miss_rate::total         0.474217                       # miss rate for ReadExReq accesses
system.l2.ReadExReq_avg_miss_latency::.cpu.data 86671.924082                       # average ReadExReq miss latency
system.l2.ReadExReq_avg_miss_latency::total 86671.924082                       # average ReadExReq miss latency
system.l2.ReadExReq_mshr_misses::.cpu.data       136252                       # number of ReadExReq MSHR misses
system.l2.ReadExReq_mshr_misses::total         136252                       # number of ReadExReq MSHR misses
system.l2.ReadExReq_mshr_miss_latency::.cpu.data  10446713000                       # number of ReadExReq MSHR miss cycles
system.l2.ReadExReq_mshr_miss_latency::total  10446713000                       # number of ReadExReq MSHR miss cycles
system.l2.ReadExReq_mshr_miss_rate::.cpu.data     0.474217                       # mshr miss rate for ReadExReq accesses
system.l2.ReadExReq_mshr_miss_rate::total     0.474217                       # mshr miss rate for ReadExReq accesses
system.l2.ReadExReq_avg_mshr_miss_latency::.cpu.data 76671.997475                       # average ReadExReq mshr miss latency
system.l2.ReadExReq_avg_mshr_miss_latency::total 76671.997475                       # average ReadExReq mshr miss latency
system.l2.ReadCleanReq_hits::.cpu.inst             25                       # number of ReadCleanReq hits
system.l2.ReadCleanReq_hits::total                 25                       # number of ReadCleanReq hits
system.l2.ReadCleanReq_misses::.cpu.inst          660                       # number of ReadCleanReq misses
system.l2.ReadCleanReq_misses::total              660                       # number of ReadCleanReq misses
system.l2.ReadCleanReq_miss_latency::.cpu.inst     51327000                       # number of ReadCleanReq miss cycles
system.l2.ReadCleanReq_miss_latency::total     51327000                       # number of ReadCleanReq miss cycles
system.l2.ReadCleanReq_accesses::.cpu.inst          685                       # number of ReadCleanReq accesses(hits+misses)
system.l2.ReadCleanReq_accesses::total            685                       # number of ReadCleanReq accesses(hits+misses)
system.l2.ReadCleanReq_miss_rate::.cpu.inst     0.963504                       # miss rate for ReadCleanReq accesses
system.l2.ReadCleanReq_miss_rate::total      0.963504                       # miss rate for ReadCleanReq accesses
system.l2.ReadCleanReq_avg_miss_latency::.cpu.inst 77768.181818                       # average ReadCleanReq miss latency
system.l2.ReadCleanReq_avg_miss_latency::total 77768.181818                       # average ReadCleanReq miss latency
system.l2.ReadCleanReq_mshr_misses::.cpu.inst          660                       # number of ReadCleanReq MSHR misses
system.l2.ReadCleanReq_mshr_misses::total          660                       # number of ReadCleanReq MSHR misses
system.l2.ReadCleanReq_mshr_miss_latency::.cpu.inst     44727000                       # number of ReadCleanReq MSHR miss cycles
system.l2.ReadCleanReq_mshr_miss_latency::total     44727000                       # number of ReadCleanReq MSHR miss cycles
system.l2.ReadCleanReq_mshr_miss_rate::.cpu.inst     0.963504                       # mshr miss rate for ReadCleanReq accesses
system.l2.ReadCleanReq_mshr_miss_rate::total     0.963504                       # mshr miss rate for ReadCleanReq accesses
system.l2.ReadCleanReq_avg_mshr_miss_latency::.cpu.inst 67768.181818                       # average ReadCleanReq mshr miss latency
system.l2.ReadCleanReq_avg_mshr_miss_latency::total 67768.181818                       # average ReadCleanReq mshr miss latency
system.l2.ReadSharedReq_hits::.cpu.data        332216                       # number of ReadSharedReq hits
system.l2.ReadSharedReq_hits::total            332216                       # number of ReadSharedReq hits
system.l2.ReadSharedReq_misses::.cpu.data        65085                       # number of ReadSharedReq misses
system.l2.ReadSharedReq_misses::total           65085                       # number of ReadSharedReq misses
system.l2.ReadSharedReq_miss_latency::.cpu.data   5198702000                       # number of ReadSharedReq miss cycles
system.l2.ReadSharedReq_miss_latency::total   5198702000                       # number of ReadSharedReq miss cycles
system.l2.ReadSharedReq_accesses::.cpu.data       397301                       # number of ReadSharedReq accesses(hits+misses)
system.l2.ReadSharedReq_accesses::total        397301                       # number of ReadSharedReq accesses(hits+misses)
system.l2.ReadSharedReq_miss_rate::.cpu.data     0.163818                       # miss rate for ReadSharedReq accesses
system.l2.ReadSharedReq_miss_rate::total     0.163818                       # miss rate for ReadSharedReq accesses
system.l2.ReadSharedReq_avg_miss_latency::.cpu.data 79875.578090                       # average ReadSharedReq miss latency
system.l2.ReadSharedReq_avg_miss_latency::total 79875.578090                       # average ReadSharedReq miss latency
system.l2.ReadSharedReq_mshr_hits::.cpu.data            5                       # number of ReadSharedReq MSHR hits
system.l2.ReadSharedReq_mshr_hits::total            5                       # number of ReadSharedReq MSHR hits
system.l2.ReadSharedReq_mshr_misses::.cpu.data        65080                       # number of ReadSharedReq MSHR misses
system.l2.ReadSharedReq_mshr_misses::total        65080                       # number of ReadSharedReq MSHR misses
system.l2.ReadSharedReq_mshr_miss_latency::.cpu.data   4547574000                       # number of ReadSharedReq MSHR miss cycles
system.l2.ReadSharedReq_mshr_miss_latency::total   4547574000                       # number of ReadSharedReq MSHR miss cycles
system.l2.ReadSharedReq_mshr_miss_rate::.cpu.data     0.163805                       # mshr miss rate for ReadSharedReq accesses
system.l2.ReadSharedReq_mshr_miss_rate::total     0.163805                       # mshr miss rate for ReadSharedReq accesses
system.l2.ReadSharedReq_avg_mshr_miss_latency::.cpu.data 69876.674862                       # average ReadSharedReq mshr miss latency
system.l2.ReadSharedReq_avg_mshr_miss_latency::total 69876.674862                       # average ReadSharedReq mshr miss latency
system.l2.power_state.pwrStateResidencyTicks::UNDEFINED  83828546000                       # Cumulative time (in ticks) in various power states
system.l2.tags.tagsinuse                 31895.434637                       # Cycle average of tags in use
system.l2.tags.total_refs                     1368727                       # Total number of references to valid blocks.
system.l2.tags.sampled_refs                    202008                       # Sample count of references to valid blocks.
system.l2.tags.avg_refs                      6.775608                       # Average number of references to valid blocks.
system.l2.tags.warmup_cycle                     77000                       # Cycle when the warmup percentage was hit.
system.l2.tags.occ_blocks::.writebacks       7.645421                       # Average occupied blocks per requestor
system.l2.tags.occ_blocks::.cpu.inst        77.831440                       # Average occupied blocks per requestor
system.l2.tags.occ_blocks::.cpu.data     31809.957775                       # Average occupied blocks per requestor
system.l2.tags.occ_percent::.writebacks      0.000233                       # Average percentage of cache occupancy
system.l2.tags.occ_percent::.cpu.inst        0.002375                       # Average percentage of cache occupancy
system.l2.tags.occ_percent::.cpu.data        0.970763                       # Average percentage of cache occupancy
system.l2.tags.occ_percent::total            0.973371                       # Average percentage of cache occupancy
system.l2.tags.occ_task_id_blocks::1024         32768                       # Occupied blocks per task id
system.l2.tags.age_task_id_blocks_1024::0           66                       # Occupied blocks per task id
system.l2.tags.age_task_id_blocks_1024::1           35                       # Occupied blocks per task id
system.l2.tags.age_task_id_blocks_1024::2         1332                       # Occupied blocks per task id
system.l2.tags.age_task_id_blocks_1024::3        15552                       # Occupied blocks per task id
system.l2.tags.age_task_id_blocks_1024::4        15783                       # Occupied blocks per task id
system.l2.tags.occ_task_id_percent::1024            1                       # Percentage of cache occupancy per task id
system.l2.tags.tag_accesses                  11151872                       # Number of tag accesses
system.l2.tags.data_accesses                 11151872                       # Number of data accesses
system.l2.tags.power_state.pwrStateResidencyTicks::UNDEFINED  83828546000                       # Cumulative time (in ticks) in various power states
system.mem_ctrls.avgPriority_.writebacks::samples    111191.00                       # Average QoS priority value for accepted requests
system.mem_ctrls.avgPriority_.cpu.inst::samples       660.00                       # Average QoS priority value for accepted requests
system.mem_ctrls.avgPriority_.cpu.data::samples    201296.00                       # Average QoS priority value for accepted requests
system.mem_ctrls.priorityMinLatency      0.000000018750                       # per QoS priority minimum request to response latency (s)
system.mem_ctrls.priorityMaxLatency      0.003619050500                       # per QoS priority maximum request to response latency (s)
system.mem_ctrls.numReadWriteTurnArounds         6659                       # Number of turnarounds from READ to WRITE
system.mem_ctrls.numWriteReadTurnArounds         6659                       # Number of turnarounds from WRITE to READ
system.mem_ctrls.numStayReadState              525993                       # Number of times bus staying in READ state
system.mem_ctrls.numStayWriteState             104704                       # Number of times bus staying in WRITE state
system.mem_ctrls.readReqs                      201991                       # Number of read requests accepted
system.mem_ctrls.writeReqs                     111191                       # Number of write requests accepted
system.mem_ctrls.readBursts                    201991                       # Number of controller read bursts, including those serviced by the write queue
system.mem_ctrls.writeBursts                   111191                       # Number of controller write bursts, including those merged in the write queue
system.mem_ctrls.servicedByWrQ                     35                       # Number of controller read bursts serviced by the write queue
system.mem_ctrls.mergedWrBursts                     0                       # Number of controller write bursts merged with an existing one
system.mem_ctrls.neitherReadNorWriteReqs            0                       # Number of requests that are neither read nor write
system.mem_ctrls.avgRdQLen                       1.08                       # Average read queue length when enqueuing
system.mem_ctrls.avgWrQLen                      24.61                       # Average write queue length when enqueuing
system.mem_ctrls.numRdRetry                         0                       # Number of times read queue was full causing retry
system.mem_ctrls.numWrRetry                         0                       # Number of times write queue was full causing retry
system.mem_ctrls.readPktSize::0                     0                       # Read request sizes (log2)
system.mem_ctrls.readPktSize::1                     0                       # Read request sizes (log2)
system.mem_ctrls.readPktSize::2                     0                       # Read request sizes (log2)
system.mem_ctrls.readPktSize::3                     0                       # Read request sizes (log2)
system.mem_ctrls.readPktSize::4                     0                       # Read request sizes (log2)
system.mem_ctrls.readPktSize::5                     0                       # Read request sizes (log2)
system.mem_ctrls.readPktSize::6                201991                       # Read request sizes (log2)
system.mem_ctrls.writePktSize::0                    0                       # Write request sizes (log2)
[...]
system.mem_ctrls.dram.bw_write::.writebacks     84890223                       # Write bandwidth from this memory (bytes/s)
system.mem_ctrls.dram.bw_write::total        84890223                       # Write bandwidth from this memory (bytes/s)
system.mem_ctrls.dram.bw_total::.writebacks     84890223                       # Total bandwidth to/from this memory (bytes/s)
system.mem_ctrls.dram.bw_total::.cpu.inst       503886                       # Total bandwidth to/from this memory (bytes/s)
system.mem_ctrls.dram.bw_total::.cpu.data    153708786                       # Total bandwidth to/from this memory (bytes/s)
system.mem_ctrls.dram.bw_total::total       239102895                       # Total bandwidth to/from this memory (bytes/s)
system.mem_ctrls.dram.readBursts               201956                       # Number of DRAM read bursts
system.mem_ctrls.dram.writeBursts              111173                       # Number of DRAM write bursts
system.mem_ctrls.dram.perBankRdBursts::0        12805                       # Per bank write bursts
system.mem_ctrls.dram.perBankRdBursts::1        12635                       # Per bank write bursts
system.mem_ctrls.dram.perBankRdBursts::2        12659                       # Per bank write bursts
system.mem_ctrls.dram.perBankRdBursts::3        12391                       # Per bank write bursts
system.mem_ctrls.dram.perBankRdBursts::4        12608                       # Per bank write bursts
system.mem_ctrls.dram.perBankRdBursts::5        12381                       # Per bank write bursts
system.mem_ctrls.dram.perBankRdBursts::6        12463                       # Per bank write bursts
system.mem_ctrls.dram.perBankRdBursts::7        12145                       # Per bank write bursts
system.mem_ctrls.dram.perBankRdBursts::8        12613                       # Per bank write bursts
system.mem_ctrls.dram.perBankRdBursts::9        12624                       # Per bank write bursts
system.mem_ctrls.dram.perBankRdBursts::10        12800                       # Per bank write bursts
system.mem_ctrls.dram.perBankRdBursts::11        12751                       # Per bank write bursts
system.mem_ctrls.dram.perBankRdBursts::12        12808                       # Per bank write bursts
system.mem_ctrls.dram.perBankRdBursts::13        12678                       # Per bank write bursts
system.mem_ctrls.dram.perBankRdBursts::14        12825                       # Per bank write bursts
system.mem_ctrls.dram.perBankRdBursts::15        12770                       # Per bank write bursts
system.mem_ctrls.dram.perBankWrBursts::0         7028                       # Per bank write bursts
system.mem_ctrls.dram.perBankWrBursts::1         7031                       # Per bank write bursts
system.mem_ctrls.dram.perBankWrBursts::2         7037                       # Per bank write bursts
system.mem_ctrls.dram.perBankWrBursts::3         6945                       # Per bank write bursts
system.mem_ctrls.dram.perBankWrBursts::4         7146                       # Per bank write bursts
system.mem_ctrls.dram.perBankWrBursts::5         6857                       # Per bank write bursts
system.mem_ctrls.dram.perBankWrBursts::6         6798                       # Per bank write bursts
system.mem_ctrls.dram.perBankWrBursts::7         6492                       # Per bank write bursts
system.mem_ctrls.dram.perBankWrBursts::8         6881                       # Per bank write bursts
system.mem_ctrls.dram.perBankWrBursts::9         6918                       # Per bank write bursts
system.mem_ctrls.dram.perBankWrBursts::10         7011                       # Per bank write bursts
system.mem_ctrls.dram.perBankWrBursts::11         6947                       # Per bank write bursts
system.mem_ctrls.dram.perBankWrBursts::12         7005                       # Per bank write bursts
system.mem_ctrls.dram.perBankWrBursts::13         6931                       # Per bank write bursts
system.mem_ctrls.dram.perBankWrBursts::14         7059                       # Per bank write bursts
system.mem_ctrls.dram.perBankWrBursts::15         7087                       # Per bank write bursts
system.mem_ctrls.dram.totQLat              2931636000                       # Total ticks spent queuing
system.mem_ctrls.dram.totBusLat            1009780000                       # Total ticks spent in databus transfers
system.mem_ctrls.dram.totMemAccLat         6718311000                       # Total ticks spent from burst creation until serviced by the DRAM
system.mem_ctrls.dram.avgQLat                14516.21                       # Average queueing delay per DRAM burst
system.mem_ctrls.dram.avgBusLat               5000.00                       # Average bus latency per DRAM burst
system.mem_ctrls.dram.avgMemAccLat           33266.21                       # Average memory access latency per DRAM burst
system.mem_ctrls.dram.readRowHits              138833                       # Number of row buffer hits during reads
system.mem_ctrls.dram.writeRowHits              70119                       # Number of row buffer hits during writes
system.mem_ctrls.dram.readRowHitRate            68.74                       # Row buffer hit rate for reads
system.mem_ctrls.dram.writeRowHitRate           63.07                       # Row buffer hit rate for writes
system.mem_ctrls.dram.bytesPerActivate::samples       104174                       # Bytes accessed per row activation
system.mem_ctrls.dram.bytesPerActivate::mean   192.371071                       # Bytes accessed per row activation
system.mem_ctrls.dram.bytesPerActivate::gmean   111.970000                       # Bytes accessed per row activation
system.mem_ctrls.dram.bytesPerActivate::stdev   257.643100                       # Bytes accessed per row activation
system.mem_ctrls.dram.bytesPerActivate::0-127        68538     65.79%     65.79% # Bytes accessed per row activation
system.mem_ctrls.dram.bytesPerActivate::128-255        14553     13.97%     79.76% # Bytes accessed per row activation
system.mem_ctrls.dram.bytesPerActivate::256-383         2329      2.24%     82.00% # Bytes accessed per row activation
system.mem_ctrls.dram.bytesPerActivate::384-511         1443      1.39%     83.38% # Bytes accessed per row activation
system.mem_ctrls.dram.bytesPerActivate::512-639         9623      9.24%     92.62% # Bytes accessed per row activation
system.mem_ctrls.dram.bytesPerActivate::640-767          943      0.91%     93.53% # Bytes accessed per row activation
system.mem_ctrls.dram.bytesPerActivate::768-895          549      0.53%     94.05% # Bytes accessed per row activation
system.mem_ctrls.dram.bytesPerActivate::896-1023          505      0.48%     94.54% # Bytes accessed per row activation
system.mem_ctrls.dram.bytesPerActivate::1024-1151         5691      5.46%    100.00% # Bytes accessed per row activation
system.mem_ctrls.dram.bytesPerActivate::total       104174                       # Bytes accessed per row activation
system.mem_ctrls.dram.bytesRead              12925184                       # Total number of bytes read from DRAM
system.mem_ctrls.dram.bytesWritten            7115072                       # Total number of bytes written to DRAM
system.mem_ctrls.dram.avgRdBW              154.185950                       # Average DRAM read bandwidth in MiBytes/s
system.mem_ctrls.dram.avgWrBW               84.876481                       # Average DRAM write bandwidth in MiBytes/s
system.mem_ctrls.dram.peakBW                 12800.00                       # Theoretical peak bandwidth in MiByte/s
system.mem_ctrls.dram.busUtil                    1.87                       # Data bus utilization in percentage
system.mem_ctrls.dram.busUtilRead                1.20                       # Data bus utilization in percentage for reads
system.mem_ctrls.dram.busUtilWrite               0.66                       # Data bus utilization in percentage for writes
system.mem_ctrls.dram.pageHitRate               66.73                       # Row buffer hit rate, read and write combined
system.mem_ctrls.dram.power_state.pwrStateResidencyTicks::UNDEFINED  83828546000                       # Cumulative time (in ticks) in various power states
system.mem_ctrls.dram.rank0.actEnergy       371272860                       # Energy for activate commands per rank (pJ)
system.mem_ctrls.dram.rank0.preEnergy       197328615                       # Energy for precharge commands per rank (pJ)
system.mem_ctrls.dram.rank0.readEnergy      714621180                       # Energy for read commands per rank (pJ)
system.mem_ctrls.dram.rank0.writeEnergy     288843480                       # Energy for write commands per rank (pJ)
system.mem_ctrls.dram.rank0.refreshEnergy 6617214240.000001                       # Energy for refresh commands per rank (pJ)
system.mem_ctrls.dram.rank0.actBackEnergy  21267373170                       # Energy for active background per rank (pJ)
system.mem_ctrls.dram.rank0.preBackEnergy  14280794880                       # Energy for precharge background per rank (pJ)
system.mem_ctrls.dram.rank0.actPowerDownEnergy            0                       # Energy for active power-down per rank (pJ)
system.mem_ctrls.dram.rank0.prePowerDownEnergy            0                       # Energy for precharge power-down per rank (pJ)
system.mem_ctrls.dram.rank0.selfRefreshEnergy            0                       # Energy for self refresh per rank (pJ)
system.mem_ctrls.dram.rank0.totalEnergy   43737448425                       # Total energy per rank (pJ)
system.mem_ctrls.dram.rank0.averagePower   521.748861                       # Core power per rank (mW)
system.mem_ctrls.dram.rank0.totalIdleTime            0                       # Total Idle time Per DRAM Rank
system.mem_ctrls.dram.rank0.pwrStateTime::IDLE  36908265250                       # Time in different power states
system.mem_ctrls.dram.rank0.pwrStateTime::REF   2799160000                       # Time in different power states
system.mem_ctrls.dram.rank0.pwrStateTime::SREF            0                       # Time in different power states
system.mem_ctrls.dram.rank0.pwrStateTime::PRE_PDN            0                       # Time in different power states
system.mem_ctrls.dram.rank0.pwrStateTime::ACT  44121120750                       # Time in different power states
system.mem_ctrls.dram.rank0.pwrStateTime::ACT_PDN            0                       # Time in different power states
system.mem_ctrls.dram.rank1.actEnergy       372550920                       # Energy for activate commands per rank (pJ)
system.mem_ctrls.dram.rank1.preEnergy       198011715                       # Energy for precharge commands per rank (pJ)
system.mem_ctrls.dram.rank1.readEnergy      727344660                       # Energy for read commands per rank (pJ)
system.mem_ctrls.dram.rank1.writeEnergy     291479580                       # Energy for write commands per rank (pJ)
system.mem_ctrls.dram.rank1.refreshEnergy 6617214240.000001                       # Energy for refresh commands per rank (pJ)
system.mem_ctrls.dram.rank1.actBackEnergy  21969574410                       # Energy for active background per rank (pJ)
system.mem_ctrls.dram.rank1.preBackEnergy  13689467520                       # Energy for precharge background per rank (pJ)
system.mem_ctrls.dram.rank1.actPowerDownEnergy            0                       # Energy for active power-down per rank (pJ)
system.mem_ctrls.dram.rank1.prePowerDownEnergy            0                       # Energy for precharge power-down per rank (pJ)
system.mem_ctrls.dram.rank1.selfRefreshEnergy            0                       # Energy for self refresh per rank (pJ)
system.mem_ctrls.dram.rank1.totalEnergy   43865643045                       # Total energy per rank (pJ)
system.mem_ctrls.dram.rank1.averagePower   523.278109                       # Core power per rank (mW)
system.mem_ctrls.dram.rank1.totalIdleTime            0                       # Total Idle time Per DRAM Rank
system.mem_ctrls.dram.rank1.pwrStateTime::IDLE  35362599250                       # Time in different power states
system.mem_ctrls.dram.rank1.pwrStateTime::REF   2799160000                       # Time in different power states
system.mem_ctrls.dram.rank1.pwrStateTime::SREF            0                       # Time in different power states
system.mem_ctrls.dram.rank1.pwrStateTime::PRE_PDN            0                       # Time in different power states
system.mem_ctrls.dram.rank1.pwrStateTime::ACT  45666786750                       # Time in different power states
system.mem_ctrls.dram.rank1.pwrStateTime::ACT_PDN            0                       # Time in different power states
system.mem_ctrls.power_state.pwrStateResidencyTicks::UNDEFINED  83828546000                       # Cumulative time (in ticks) in various power states
system.membus.trans_dist::ReadResp              65740                       # Transaction distribution
system.membus.trans_dist::WritebackDirty       111191                       # Transaction distribution
system.membus.trans_dist::CleanEvict            57472                       # Transaction distribution
system.membus.trans_dist::ReadExReq            136251                       # Transaction distribution
system.membus.trans_dist::ReadExResp           136251                       # Transaction distribution
system.membus.trans_dist::ReadSharedReq         65740                       # Transaction distribution
system.membus.pkt_count_system.l2.mem_side_port::system.mem_ctrls.port       572645                       # Packet count per connected requestor and responder (bytes)
system.membus.pkt_count::total                 572645                       # Packet count per connected requestor and responder (bytes)
system.membus.pkt_size_system.l2.mem_side_port::system.mem_ctrls.port     20043648                       # Cumulative packet size per connected requestor and responder (bytes)
system.membus.pkt_size::total                20043648                       # Cumulative packet size per connected requestor and responder (bytes)
system.membus.snoops                                0                       # Total snoops (count)
system.membus.snoopTraffic                          0                       # Total snoop traffic (bytes)
system.membus.snoop_fanout::samples            201991                       # Request fanout histogram
system.membus.snoop_fanout::mean                    0                       # Request fanout histogram
system.membus.snoop_fanout::stdev                   0                       # Request fanout histogram
system.membus.snoop_fanout::underflows              0      0.00%      0.00% # Request fanout histogram
system.membus.snoop_fanout::0                  201991    100.00%    100.00% # Request fanout histogram
system.membus.snoop_fanout::1                       0      0.00%    100.00% # Request fanout histogram
system.membus.snoop_fanout::overflows               0      0.00%    100.00% # Request fanout histogram
system.membus.snoop_fanout::min_value               0                       # Request fanout histogram
system.membus.snoop_fanout::max_value               0                       # Request fanout histogram
system.membus.snoop_fanout::total              201991                       # Request fanout histogram
system.membus.power_state.pwrStateResidencyTicks::UNDEFINED  83828546000                       # Cumulative time (in ticks) in various power states
system.membus.reqLayer0.occupancy           846924000                       # Layer occupancy (ticks)
system.membus.reqLayer0.utilization               1.0                       # Layer utilization (%)
system.membus.respLayer1.occupancy         1087942500                       # Layer occupancy (ticks)
system.membus.respLayer1.utilization              1.3                       # Layer utilization (%)
system.tol2bus.trans_dist::ReadResp            397986                       # Transaction distribution
system.tol2bus.trans_dist::WritebackDirty       718655                       # Transaction distribution
system.tol2bus.trans_dist::WritebackClean           30                       # Transaction distribution
system.tol2bus.trans_dist::CleanEvict          134181                       # Transaction distribution
system.tol2bus.trans_dist::ReadExReq           287320                       # Transaction distribution
system.tol2bus.trans_dist::ReadExResp          287319                       # Transaction distribution
system.tol2bus.trans_dist::ReadCleanReq           685                       # Transaction distribution
system.tol2bus.trans_dist::ReadSharedReq       397301                       # Transaction distribution
system.tol2bus.pkt_count_system.cpu.icache.mem_side_port::system.l2.cpu_side_port         1400                       # Packet count per connected requestor and responder (bytes)
system.tol2bus.pkt_count_system.cpu.dcache.mem_side_port::system.l2.cpu_side_port      2052837                       # Packet count per connected requestor and responder (bytes)
system.tol2bus.pkt_count::total               2054237                       # Packet count per connected requestor and responder (bytes)
system.tol2bus.pkt_size_system.cpu.icache.mem_side_port::system.l2.cpu_side_port        45760                       # Cumulative packet size per connected requestor and responder (bytes)
system.tol2bus.pkt_size_system.cpu.dcache.mem_side_port::system.l2.cpu_side_port     82693376                       # Cumulative packet size per connected requestor and responder (bytes)
system.tol2bus.pkt_size::total               82739136                       # Cumulative packet size per connected requestor and responder (bytes)
system.tol2bus.snoops                          169240                       # Total snoops (count)
system.tol2bus.snoopTraffic                   7116224                       # Total snoop traffic (bytes)
system.tol2bus.snoop_fanout::samples           854546                       # Request fanout histogram
system.tol2bus.snoop_fanout::mean            0.000910                       # Request fanout histogram
system.tol2bus.snoop_fanout::stdev           0.030160                       # Request fanout histogram
system.tol2bus.snoop_fanout::underflows             0      0.00%      0.00% # Request fanout histogram
system.tol2bus.snoop_fanout::0                 853768     99.91%     99.91% # Request fanout histogram
system.tol2bus.snoop_fanout::1                    778      0.09%    100.00% # Request fanout histogram
system.tol2bus.snoop_fanout::2                      0      0.00%    100.00% # Request fanout histogram
system.tol2bus.snoop_fanout::overflows              0      0.00%    100.00% # Request fanout histogram
system.tol2bus.snoop_fanout::min_value              0                       # Request fanout histogram
system.tol2bus.snoop_fanout::max_value              1                       # Request fanout histogram
system.tol2bus.snoop_fanout::total             854546                       # Request fanout histogram
system.tol2bus.power_state.pwrStateResidencyTicks::UNDEFINED  83828546000                       # Cumulative time (in ticks) in various power states
system.tol2bus.reqLayer0.occupancy         1291960000                       # Layer occupancy (ticks)
system.tol2bus.reqLayer0.utilization              1.5                       # Layer utilization (%)
system.tol2bus.respLayer0.occupancy           1027500                       # Layer occupancy (ticks)
system.tol2bus.respLayer0.utilization             0.0                       # Layer utilization (%)
system.tol2bus.respLayer1.occupancy        1026932495                       # Layer occupancy (ticks)
system.tol2bus.respLayer1.utilization             1.2                       # Layer utilization (%)
system.voltage_domain.voltage                       1                       # Voltage in Volts

---------- End Simulation Statistics   ----------
