
---------- Begin Simulation Statistics ----------
final_tick                               513803385000                       # Number of ticks from beginning of simulation (restored from checkpoints and never reset)
host_inst_rate                                 140041                       # Simulator instruction rate (inst/s)
host_mem_usage                                 727944                       # Number of bytes of host memory used
host_op_rate                                   257985                       # Simulator op (including micro ops) rate (op/s)
host_seconds                                   714.07                       # Real time elapsed on the host
host_tick_rate                              719537772                       # Simulator tick rate (ticks/s)
sim_freq                                 1000000000000                       # Frequency of simulated ticks
sim_insts                                   100000000                       # Number of instructions simulated
sim_ops                                     184220346                       # Number of ops (including micro ops) simulated
sim_seconds                                  0.513803                       # Number of seconds simulated
sim_ticks                                513803385000                       # Number of ticks simulated
system.cpu.committedInsts                   100000000                       # Number of instructions committed
system.cpu.committedOps                     184220346                       # Number of ops (including micro ops) committed
system.cpu.cpi                              10.276068                       # CPI: cycles per instruction
system.cpu.discardedOps                          4312                       # Number of ops (including micro ops) which were discarded before commit
system.cpu.idleCycles                       805919570                       # Total number of cycles that the object has spent stopped
system.cpu.ipc                               0.097313                       # IPC: instructions per cycle
system.cpu.numCycles                       1027606770                       # number of cpu cycles simulated
system.cpu.numFetchSuspends                         0                       # Number of times Execute suspended instruction fetching
system.cpu.numWorkItemsCompleted                    0                       # number of work items this cpu completed
system.cpu.numWorkItemsStarted                      0                       # number of work items this cpu started
system.cpu.op_class_0::No_OpClass                   0      0.00%      0.00% # Class of committed instruction
system.cpu.op_class_0::IntAlu                97640466     53.00%     53.00% # Class of committed instruction
system.cpu.op_class_0::IntMult                 114699      0.06%     53.06% # Class of committed instruction
system.cpu.op_class_0::IntDiv                       0      0.00%     53.06% # Class of committed instruction
system.cpu.op_class_0::FloatAdd                     0      0.00%     53.06% # Class of committed instruction
system.cpu.op_class_0::FloatCmp                     0      0.00%     53.06% # Class of committed instruction
system.cpu.op_class_0::FloatCvt                     0      0.00%     53.06% # Class of committed instruction
system.cpu.op_class_0::FloatMult                    0      0.00%     53.06% # Class of committed instruction
system.cpu.op_class_0::FloatMultAcc                 0      0.00%     53.06% # Class of committed instruction
system.cpu.op_class_0::FloatDiv                     0      0.00%     53.06% # Class of committed instruction
system.cpu.op_class_0::FloatMisc                    0      0.00%     53.06% # Class of committed instruction
system.cpu.op_class_0::FloatSqrt                    0      0.00%     53.06% # Class of committed instruction
system.cpu.op_class_0::SimdAdd                      8      0.00%     53.06% # Class of committed instruction
system.cpu.op_class_0::SimdAddAcc                   0      0.00%     53.06% # Class of committed instruction
system.cpu.op_class_0::SimdAlu                      8      0.00%     53.06% # Class of committed instruction
system.cpu.op_class_0::SimdCmp                      6      0.00%     53.06% # Class of committed instruction
system.cpu.op_class_0::SimdCvt                      0      0.00%     53.06% # Class of committed instruction
system.cpu.op_class_0::SimdMisc                     1      0.00%     53.06% # Class of committed instruction
system.cpu.op_class_0::SimdMult                     0      0.00%     53.06% # Class of committed instruction
system.cpu.op_class_0::SimdMultAcc                  0      0.00%     53.06% # Class of committed instruction
system.cpu.op_class_0::SimdShift                    0      0.00%     53.06% # Class of committed instruction
system.cpu.op_class_0::SimdShiftAcc                 0      0.00%     53.06% # Class of committed instruction
system.cpu.op_class_0::SimdDiv                      0      0.00%     53.06% # Class of committed instruction
system.cpu.op_class_0::SimdSqrt                     0      0.00%     53.06% # Class of committed instruction
system.cpu.op_class_0::SimdFloatAdd                 0      0.00%     53.06% # Class of committed instruction
system.cpu.op_class_0::SimdFloatAlu                 0      0.00%     53.06% # Class of committed instruction
system.cpu.op_class_0::SimdFloatCmp                 0      0.00%     53.06% # Class of committed instruction
system.cpu.op_class_0::SimdFloatCvt                 0      0.00%     53.06% # Class of committed instruction
system.cpu.op_class_0::SimdFloatDiv                 0      0.00%     53.06% # Class of committed instruction
system.cpu.op_class_0::SimdFloatMisc                6      0.00%     53.06% # Class of committed instruction
system.cpu.op_class_0::SimdFloatMult                0      0.00%     53.06% # Class of committed instruction
system.cpu.op_class_0::SimdFloatMultAcc             0      0.00%     53.06% # Class of committed instruction
system.cpu.op_class_0::SimdFloatSqrt                0      0.00%     53.06% # Class of committed instruction
system.cpu.op_class_0::SimdReduceAdd                0      0.00%     53.06% # Class of committed instruction
system.cpu.op_class_0::SimdReduceAlu                0      0.00%     53.06% # Class of committed instruction
system.cpu.op_class_0::SimdReduceCmp                0      0.00%     53.06% # Class of committed instruction
system.cpu.op_class_0::SimdFloatReduceAdd            0      0.00%     53.06% # Class of committed instruction
system.cpu.op_class_0::SimdFloatReduceCmp            0      0.00%     53.06% # Class of committed instruction
system.cpu.op_class_0::SimdAes                      0      0.00%     53.06% # Class of committed instruction
system.cpu.op_class_0::SimdAesMix                   0      0.00%     53.06% # Class of committed instruction
system.cpu.op_class_0::SimdSha1Hash                 0      0.00%     53.06% # Class of committed instruction
system.cpu.op_class_0::SimdSha1Hash2                0      0.00%     53.06% # Class of committed instruction
system.cpu.op_class_0::SimdSha256Hash               0      0.00%     53.06% # Class of committed instruction
system.cpu.op_class_0::SimdSha256Hash2              0      0.00%     53.06% # Class of committed instruction
system.cpu.op_class_0::SimdShaSigma2                0      0.00%     53.06% # Class of committed instruction
system.cpu.op_class_0::SimdShaSigma3                0      0.00%     53.06% # Class of committed instruction
system.cpu.op_class_0::SimdPredAlu                  0      0.00%     53.06% # Class of committed instruction
system.cpu.op_class_0::MemRead                2082588      1.13%     54.19% # Class of committed instruction
system.cpu.op_class_0::MemWrite              84382564     45.81%    100.00% # Class of committed instruction
system.cpu.op_class_0::FloatMemRead                 0      0.00%    100.00% # Class of committed instruction
system.cpu.op_class_0::FloatMemWrite                0      0.00%    100.00% # Class of committed instruction
system.cpu.op_class_0::IprAccess                    0      0.00%    100.00% # Class of committed instruction
system.cpu.op_class_0::InstPrefetch                 0      0.00%    100.00% # Class of committed instruction
system.cpu.op_class_0::total                184220346                       # Class of committed instruction
system.cpu.tickCycles                       221687200                       # Number of cycles that the object actually ticked
system.cpu.workload.numSyscalls                    19                       # Number of system calls
system.membus.snoop_filter.hit_multi_requests            0                       # Number of requests hitting in the snoop filter with multiple (>1) holders of the requested data.
system.membus.snoop_filter.hit_multi_snoops            0                       # Number of snoops hitting in the snoop filter with multiple (>1) holders of the requested data.
system.membus.snoop_filter.hit_single_requests      5230585                       # Number of requests hitting in the snoop filter with a single holder of the requested data.
system.membus.snoop_filter.hit_single_snoops            0                       # Number of snoops hitting in the snoop filter with a single holder of the requested data.
system.membus.snoop_filter.tot_requests      10494403                       # Total number of requests made to the snoop filter.
system.membus.snoop_filter.tot_snoops               0                       # Total number of snoops made to the snoop filter.
system.tol2bus.snoop_filter.hit_multi_requests           56                       # Number of requests hitting in the snoop filter with multiple (>1) holders of the requested data.
system.tol2bus.snoop_filter.hit_multi_snoops            0                       # Number of snoops hitting in the snoop filter with multiple (>1) holders of the requested data.
system.tol2bus.snoop_filter.hit_single_requests      5262419                       # Number of requests hitting in the snoop filter with a single holder of the requested data.
system.tol2bus.snoop_filter.hit_single_snoops          589                       # Number of snoops hitting in the snoop filter with a single holder of the requested data.
system.tol2bus.snoop_filter.tot_requests     10526338                       # Total number of requests made to the snoop filter.
system.tol2bus.snoop_filter.tot_snoops            589                       # Total number of snoops made to the snoop filter.
system.clk_domain.clock                          1000                       # Clock period in ticks
system.cpu.branchPred.lookups                10658362                       # Number of BP lookups
system.cpu.branchPred.condPredicted          10650101                       # Number of conditional branches predicted
system.cpu.branchPred.condIncorrect              1446                       # Number of conditional branches incorrect
system.cpu.branchPred.BTBLookups             10650403                       # Number of BTB lookups
system.cpu.branchPred.BTBHits                10649079                       # Number of BTB hits
system.cpu.branchPred.BTBHitPct             99.987569                       # BTB Hit Percentage
system.cpu.branchPred.RASUsed                    2703                       # Number of times the RAS was used to get a target.
system.cpu.branchPred.RASIncorrect                  2                       # Number of incorrect RAS predictions.
system.cpu.branchPred.indirectLookups             196                       # Number of indirect predictor lookups.
system.cpu.branchPred.indirectHits                 22                       # Number of indirect target hits.
system.cpu.branchPred.indirectMisses              174                       # Number of indirect misses.
system.cpu.branchPred.indirectMispredicted          105                       # Number of mispredicted indirect branches.
system.cpu.dcache.demand_hits::.cpu.data     75858322                       # number of demand (read+write) hits
system.cpu.dcache.demand_hits::total         75858322                       # number of demand (read+write) hits
system.cpu.dcache.overall_hits::.cpu.data     75858352                       # number of overall hits
system.cpu.dcache.overall_hits::total        75858352                       # number of overall hits
system.cpu.dcache.demand_misses::.cpu.data     10523838                       # number of demand (read+write) misses
system.cpu.dcache.demand_misses::total       10523838                       # number of demand (read+write) misses
system.cpu.dcache.overall_misses::.cpu.data     10523879                       # number of overall misses
system.cpu.dcache.overall_misses::total      10523879                       # number of overall misses
system.cpu.dcache.demand_miss_latency::.cpu.data 876707908999                       # number of demand (read+write) miss cycles
system.cpu.dcache.demand_miss_latency::total 876707908999                       # number of demand (read+write) miss cycles
system.cpu.dcache.overall_miss_latency::.cpu.data 876707908999                       # number of overall miss cycles
system.cpu.dcache.overall_miss_latency::total 876707908999                       # number of overall miss cycles
system.cpu.dcache.demand_accesses::.cpu.data     86382160                       # number of demand (read+write) accesses
system.cpu.dcache.demand_accesses::total     86382160                       # number of demand (read+write) accesses
system.cpu.dcache.overall_accesses::.cpu.data     86382231                       # number of overall (read+write) accesses
system.cpu.dcache.overall_accesses::total     86382231                       # number of overall (read+write) accesses
system.cpu.dcache.demand_miss_rate::.cpu.data     0.121829                       # miss rate for demand accesses
system.cpu.dcache.demand_miss_rate::total     0.121829                       # miss rate for demand accesses
system.cpu.dcache.overall_miss_rate::.cpu.data     0.121829                       # miss rate for overall accesses
system.cpu.dcache.overall_miss_rate::total     0.121829                       # miss rate for overall accesses
system.cpu.dcache.demand_avg_miss_latency::.cpu.data 83306.860957                       # average overall miss latency
system.cpu.dcache.demand_avg_miss_latency::total 83306.860957                       # average overall miss latency
system.cpu.dcache.overall_avg_miss_latency::.cpu.data 83306.536402                       # average overall miss latency
system.cpu.dcache.overall_avg_miss_latency::total 83306.536402                       # average overall miss latency
system.cpu.dcache.blocked_cycles::no_mshrs          359                       # number of cycles access was blocked
system.cpu.dcache.blocked_cycles::no_targets            0                       # number of cycles access was blocked
system.cpu.dcache.blocked::no_mshrs                 4                       # number of cycles access was blocked
system.cpu.dcache.blocked::no_targets               0                       # number of cycles access was blocked
system.cpu.dcache.avg_blocked_cycles::no_mshrs    89.750000                       # average number of cycles each access was blocked
system.cpu.dcache.avg_blocked_cycles::no_targets          nan                       # average number of cycles each access was blocked
system.cpu.dcache.writebacks::.writebacks      5262023                       # number of writebacks
system.cpu.dcache.writebacks::total           5262023                       # number of writebacks
system.cpu.dcache.demand_mshr_hits::.cpu.data      5260550                       # number of demand (read+write) MSHR hits
system.cpu.dcache.demand_mshr_hits::total      5260550                       # number of demand (read+write) MSHR hits
system.cpu.dcache.overall_mshr_hits::.cpu.data      5260550                       # number of overall MSHR hits
system.cpu.dcache.overall_mshr_hits::total      5260550                       # number of overall MSHR hits
system.cpu.dcache.demand_mshr_misses::.cpu.data      5263288                       # number of demand (read+write) MSHR misses
system.cpu.dcache.demand_mshr_misses::total      5263288                       # number of demand (read+write) MSHR misses
system.cpu.dcache.overall_mshr_misses::.cpu.data      5263322                       # number of overall MSHR misses
system.cpu.dcache.overall_mshr_misses::total      5263322                       # number of overall MSHR misses
system.cpu.dcache.demand_mshr_miss_latency::.cpu.data 431898893500                       # number of demand (read+write) MSHR miss cycles
system.cpu.dcache.demand_mshr_miss_latency::total 431898893500                       # number of demand (read+write) MSHR miss cycles
system.cpu.dcache.overall_mshr_miss_latency::.cpu.data 431901548000                       # number of overall MSHR miss cycles
system.cpu.dcache.overall_mshr_miss_latency::total 431901548000                       # number of overall MSHR miss cycles
system.cpu.dcache.demand_mshr_miss_rate::.cpu.data     0.060930                       # mshr miss rate for demand accesses
system.cpu.dcache.demand_mshr_miss_rate::total     0.060930                       # mshr miss rate for demand accesses
system.cpu.dcache.overall_mshr_miss_rate::.cpu.data     0.060931                       # mshr miss rate for overall accesses
system.cpu.dcache.overall_mshr_miss_rate::total     0.060931                       # mshr miss rate for overall accesses
system.cpu.dcache.demand_avg_mshr_miss_latency::.cpu.data 82058.761272                       # average overall mshr miss latency
system.cpu.dcache.demand_avg_mshr_miss_latency::total 82058.761272                       # average overall mshr miss latency
system.cpu.dcache.overall_avg_mshr_miss_latency::.cpu.data 82058.735529                       # average overall mshr miss latency
system.cpu.dcache.overall_avg_mshr_miss_latency::total 82058.735529                       # average overall mshr miss latency
system.cpu.dcache.replacements                5262299                       # number of replacements
system.cpu.dcache.ReadReq_hits::.cpu.data      2043591                       # number of ReadReq hits
system.cpu.dcache.ReadReq_hits::total         2043591                       # number of ReadReq hits
system.cpu.dcache.ReadReq_misses::.cpu.data          309                       # number of ReadReq misses
system.cpu.dcache.ReadReq_misses::total           309                       # number of ReadReq misses
system.cpu.dcache.ReadReq_miss_latency::.cpu.data     24246500                       # number of ReadReq miss cycles
system.cpu.dcache.ReadReq_miss_latency::total     24246500                       # number of ReadReq miss cycles
system.cpu.dcache.ReadReq_accesses::.cpu.data      2043900                       # number of ReadReq accesses(hits+misses)
system.cpu.dcache.ReadReq_accesses::total      2043900                       # number of ReadReq accesses(hits+misses)
system.cpu.dcache.ReadReq_miss_rate::.cpu.data     0.000151                       # miss rate for ReadReq accesses
system.cpu.dcache.ReadReq_miss_rate::total     0.000151                       # miss rate for ReadReq accesses
system.cpu.dcache.ReadReq_avg_miss_latency::.cpu.data 78467.637540                       # average ReadReq miss latency
system.cpu.dcache.ReadReq_avg_miss_latency::total 78467.637540                       # average ReadReq miss latency
system.cpu.dcache.ReadReq_mshr_hits::.cpu.data           21                       # number of ReadReq MSHR hits
system.cpu.dcache.ReadReq_mshr_hits::total           21                       # number of ReadReq MSHR hits
system.cpu.dcache.ReadReq_mshr_misses::.cpu.data          288                       # number of ReadReq MSHR misses
system.cpu.dcache.ReadReq_mshr_misses::total          288                       # number of ReadReq MSHR misses
system.cpu.dcache.ReadReq_mshr_miss_latency::.cpu.data     22320000                       # number of ReadReq MSHR miss cycles
system.cpu.dcache.ReadReq_mshr_miss_latency::total     22320000                       # number of ReadReq MSHR miss cycles
system.cpu.dcache.ReadReq_mshr_miss_rate::.cpu.data     0.000141                       # mshr miss rate for ReadReq accesses
system.cpu.dcache.ReadReq_mshr_miss_rate::total     0.000141                       # mshr miss rate for ReadReq accesses
system.cpu.dcache.ReadReq_avg_mshr_miss_latency::.cpu.data        77500                       # average ReadReq mshr miss latency
system.cpu.dcache.ReadReq_avg_mshr_miss_latency::total        77500                       # average ReadReq mshr miss latency
system.cpu.dcache.WriteReq_hits::.cpu.data     73814731                       # number of WriteReq hits
system.cpu.dcache.WriteReq_hits::total       73814731                       # number of WriteReq hits
system.cpu.dcache.WriteReq_misses::.cpu.data     10523529                       # number of WriteReq misses
system.cpu.dcache.WriteReq_misses::total     10523529                       # number of WriteReq misses
system.cpu.dcache.WriteReq_miss_latency::.cpu.data 876683662499                       # number of WriteReq miss cycles
system.cpu.dcache.WriteReq_miss_latency::total 876683662499                       # number of WriteReq miss cycles
system.cpu.dcache.WriteReq_accesses::.cpu.data     84338260                       # number of WriteReq accesses(hits+misses)
system.cpu.dcache.WriteReq_accesses::total     84338260                       # number of WriteReq accesses(hits+misses)
system.cpu.dcache.WriteReq_miss_rate::.cpu.data     0.124778                       # miss rate for WriteReq accesses
system.cpu.dcache.WriteReq_miss_rate::total     0.124778                       # miss rate for WriteReq accesses
system.cpu.dcache.WriteReq_avg_miss_latency::.cpu.data 83307.003050                       # average WriteReq miss latency
system.cpu.dcache.WriteReq_avg_miss_latency::total 83307.003050                       # average WriteReq miss latency
system.cpu.dcache.WriteReq_mshr_hits::.cpu.data      5260529                       # number of WriteReq MSHR hits
system.cpu.dcache.WriteReq_mshr_hits::total      5260529                       # number of WriteReq MSHR hits
system.cpu.dcache.WriteReq_mshr_misses::.cpu.data      5263000                       # number of WriteReq MSHR misses
system.cpu.dcache.WriteReq_mshr_misses::total      5263000                       # number of WriteReq MSHR misses
system.cpu.dcache.WriteReq_mshr_miss_latency::.cpu.data 431876573500                       # number of WriteReq MSHR miss cycles
system.cpu.dcache.WriteReq_mshr_miss_latency::total 431876573500                       # number of WriteReq MSHR miss cycles
system.cpu.dcache.WriteReq_mshr_miss_rate::.cpu.data     0.062403                       # mshr miss rate for WriteReq accesses
system.cpu.dcache.WriteReq_mshr_miss_rate::total     0.062403                       # mshr miss rate for WriteReq accesses
system.cpu.dcache.WriteReq_avg_mshr_miss_latency::.cpu.data 82059.010735                       # average WriteReq mshr miss latency
system.cpu.dcache.WriteReq_avg_mshr_miss_latency::total 82059.010735                       # average WriteReq mshr miss latency
system.cpu.dcache.SoftPFReq_hits::.cpu.data           30                       # number of SoftPFReq hits
system.cpu.dcache.SoftPFReq_hits::total            30                       # number of SoftPFReq hits
system.cpu.dcache.SoftPFReq_misses::.cpu.data           41                       # number of SoftPFReq misses
system.cpu.dcache.SoftPFReq_misses::total           41                       # number of SoftPFReq misses
system.cpu.dcache.SoftPFReq_accesses::.cpu.data           71                       # number of SoftPFReq accesses(hits+misses)
system.cpu.dcache.SoftPFReq_accesses::total           71                       # number of SoftPFReq accesses(hits+misses)
system.cpu.dcache.SoftPFReq_miss_rate::.cpu.data     0.577465                       # miss rate for SoftPFReq accesses
system.cpu.dcache.SoftPFReq_miss_rate::total     0.577465                       # miss rate for SoftPFReq accesses
system.cpu.dcache.SoftPFReq_mshr_misses::.cpu.data           34                       # number of SoftPFReq MSHR misses
system.cpu.dcache.SoftPFReq_mshr_misses::total           34                       # number of SoftPFReq MSHR misses
system.cpu.dcache.SoftPFReq_mshr_miss_latency::.cpu.data      2654500                       # number of SoftPFReq MSHR miss cycles
system.cpu.dcache.SoftPFReq_mshr_miss_latency::total      2654500                       # number of SoftPFReq MSHR miss cycles
system.cpu.dcache.SoftPFReq_mshr_miss_rate::.cpu.data     0.478873                       # mshr miss rate for SoftPFReq accesses
system.cpu.dcache.SoftPFReq_mshr_miss_rate::total     0.478873                       # mshr miss rate for SoftPFReq accesses
system.cpu.dcache.SoftPFReq_avg_mshr_miss_latency::.cpu.data 78073.529412                       # average SoftPFReq mshr miss latency
system.cpu.dcache.SoftPFReq_avg_mshr_miss_latency::total 78073.529412                       # average SoftPFReq mshr miss latency
system.cpu.dcache.LoadLockedReq_hits::.cpu.data           33                       # number of LoadLockedReq hits
system.cpu.dcache.LoadLockedReq_hits::total           33                       # number of LoadLockedReq hits
system.cpu.dcache.LoadLockedReq_misses::.cpu.data            1                       # number of LoadLockedReq misses
system.cpu.dcache.LoadLockedReq_misses::total            1                       # number of LoadLockedReq misses
system.cpu.dcache.LoadLockedReq_miss_latency::.cpu.data       100000                       # number of LoadLockedReq miss cycles
system.cpu.dcache.LoadLockedReq_miss_latency::total       100000                       # number of LoadLockedReq miss cycles
system.cpu.dcache.LoadLockedReq_accesses::.cpu.data           34                       # number of LoadLockedReq accesses(hits+misses)
system.cpu.dcache.LoadLockedReq_accesses::total           34                       # number of LoadLockedReq accesses(hits+misses)
system.cpu.dcache.LoadLockedReq_miss_rate::.cpu.data     0.029412                       # miss rate for LoadLockedReq accesses
system.cpu.dcache.LoadLockedReq_miss_rate::total     0.029412                       # miss rate for LoadLockedReq accesses
system.cpu.dcache.LoadLockedReq_avg_miss_latency::.cpu.data       100000                       # average LoadLockedReq miss latency
system.cpu.dcache.LoadLockedReq_avg_miss_latency::total       100000                       # average LoadLockedReq miss latency
system.cpu.dcache.LoadLockedReq_mshr_misses::.cpu.data            1                       # number of LoadLockedReq MSHR misses
system.cpu.dcache.LoadLockedReq_mshr_misses::total            1                       # number of LoadLockedReq MSHR misses
system.cpu.dcache.LoadLockedReq_mshr_miss_latency::.cpu.data        99000                       # number of LoadLockedReq MSHR miss cycles
system.cpu.dcache.LoadLockedReq_mshr_miss_latency::total        99000                       # number of LoadLockedReq MSHR miss cycles
system.cpu.dcache.LoadLockedReq_mshr_miss_rate::.cpu.data     0.029412                       # mshr miss rate for LoadLockedReq accesses
system.cpu.dcache.LoadLockedReq_mshr_miss_rate::total     0.029412                       # mshr miss rate for LoadLockedReq accesses
system.cpu.dcache.LoadLockedReq_avg_mshr_miss_latency::.cpu.data        99000                       # average LoadLockedReq mshr miss latency
system.cpu.dcache.LoadLockedReq_avg_mshr_miss_latency::total        99000                       # average LoadLockedReq mshr miss latency
system.cpu.dcache.StoreCondReq_hits::.cpu.data           34                       # number of StoreCondReq hits
system.cpu.dcache.StoreCondReq_hits::total           34                       # number of StoreCondReq hits
system.cpu.dcache.StoreCondReq_accesses::.cpu.data           34                       # number of StoreCondReq accesses(hits+misses)
system.cpu.dcache.StoreCondReq_accesses::total           34                       # number of StoreCondReq accesses(hits+misses)
system.cpu.dcache.power_state.pwrStateResidencyTicks::UNDEFINED 513803385000                       # Cumulative time (in ticks) in various power states
system.cpu.dcache.tags.tagsinuse          1023.482174                       # Cycle average of tags in use
system.cpu.dcache.tags.total_refs            81121742                       # Total number of references to valid blocks.
system.cpu.dcache.tags.sampled_refs           5263323                       # Sample count of references to valid blocks.
system.cpu.dcache.tags.avg_refs             15.412647                       # Average number of references to valid blocks.
system.cpu.dcache.tags.warmup_cycle            176500                       # Cycle when the warmup percentage was hit.
system.cpu.dcache.tags.occ_blocks::.cpu.data  1023.482174                       # Average occupied blocks per requestor
system.cpu.dcache.tags.occ_percent::.cpu.data     0.999494                       # Average percentage of cache occupancy
system.cpu.dcache.tags.occ_percent::total     0.999494                       # Average percentage of cache occupancy
system.cpu.dcache.tags.occ_task_id_blocks::1024         1024                       # Occupied blocks per task id
system.cpu.dcache.tags.age_task_id_blocks_1024::0          105                       # Occupied blocks per task id
system.cpu.dcache.tags.age_task_id_blocks_1024::1          919                       # Occupied blocks per task id
system.cpu.dcache.tags.occ_task_id_percent::1024            1                       # Percentage of cache occupancy per task id
system.cpu.dcache.tags.tag_accesses         178027921                       # Number of tag accesses
system.cpu.dcache.tags.data_accesses        178027921                       # Number of data accesses
system.cpu.dcache.tags.power_state.pwrStateResidencyTicks::UNDEFINED 513803385000                       # Cumulative time (in ticks) in various power states
system.cpu.dtb.instHits                             0                       # ITB inst hits
system.cpu.dtb.instMisses                           0                       # ITB inst misses
system.cpu.dtb.readHits                             0                       # DTB read hits
system.cpu.dtb.readMisses                           0                       # DTB read misses
system.cpu.dtb.writeHits                            0                       # DTB write hits
system.cpu.dtb.writeMisses                          0                       # DTB write misses
system.cpu.dtb.inserts                              0                       # Number of times an entry is inserted into the TLB
system.cpu.dtb.flushTlb                             0                       # Number of times complete TLB was flushed
system.cpu.dtb.flushTlbMva                          0                       # Number of times TLB was flushed by MVA
system.cpu.dtb.flushTlbMvaAsid                      0                       # Number of times TLB was flushed by MVA & ASID
system.cpu.dtb.flushTlbAsid                         0                       # Number of times TLB was flushed by ASID
system.cpu.dtb.flushedEntries                       0                       # Number of entries that have been flushed from TLB
system.cpu.dtb.alignFaults                          0                       # Number of TLB faults due to alignment restrictions
system.cpu.dtb.prefetchFaults                       0                       # Number of TLB faults due to prefetch
system.cpu.dtb.domainFaults                         0                       # Number of TLB faults due to domain restrictions
system.cpu.dtb.permsFaults                          0                       # Number of TLB faults due to permissions restrictions
system.cpu.dtb.readAccesses                         0                       # DTB read accesses
system.cpu.dtb.writeAccesses                        0                       # DTB write accesses
system.cpu.dtb.instAccesses                         0                       # ITB inst accesses
system.cpu.dtb.hits                                 0                       # Total TLB (inst and data) hits
system.cpu.dtb.misses                               0                       # Total TLB (inst and data) misses
system.cpu.dtb.accesses                             0                       # Total TLB (inst and data) accesses
system.cpu.dtb.stage2_mmu.stage2_tlb.instHits            0                       # ITB inst hits
system.cpu.dtb.stage2_mmu.stage2_tlb.instMisses            0                       # ITB inst misses
system.cpu.dtb.stage2_mmu.stage2_tlb.readHits            0                       # DTB read hits
system.cpu.dtb.stage2_mmu.stage2_tlb.readMisses            0                       # DTB read misses
system.cpu.dtb.stage2_mmu.stage2_tlb.writeHits            0                       # DTB write hits
system.cpu.dtb.stage2_mmu.stage2_tlb.writeMisses            0                       # DTB write misses
system.cpu.dtb.stage2_mmu.stage2_tlb.inserts            0                       # Number of times an entry is inserted into the TLB
system.cpu.dtb.stage2_mmu.stage2_tlb.flushTlb            0                       # Number of times complete TLB was flushed
system.cpu.dtb.stage2_mmu.stage2_tlb.flushTlbMva            0                       # Number of times TLB was flushed by MVA
system.cpu.dtb.stage2_mmu.stage2_tlb.flushTlbMvaAsid            0                       # Number of times TLB was flushed by MVA & ASID
system.cpu.dtb.stage2_mmu.stage2_tlb.flushTlbAsid            0                       # Number of times TLB was flushed by ASID
system.cpu.dtb.stage2_mmu.stage2_tlb.flushedEntries            0                       # Number of entries that have been flushed from TLB
system.cpu.dtb.stage2_mmu.stage2_tlb.alignFaults            0                       # Number of TLB faults due to alignment restrictions
system.cpu.dtb.stage2_mmu.stage2_tlb.prefetchFaults            0                       # Number of TLB faults due to prefetch
system.cpu.dtb.stage2_mmu.stage2_tlb.domainFaults            0                       # Number of TLB faults due to domain restrictions
system.cpu.dtb.stage2_mmu.stage2_tlb.permsFaults            0                       # Number of TLB faults due to permissions restrictions
system.cpu.dtb.stage2_mmu.stage2_tlb.readAccesses            0                       # DTB read accesses
system.cpu.dtb.stage2_mmu.stage2_tlb.writeAccesses            0                       # DTB write accesses
system.cpu.dtb.stage2_mmu.stage2_tlb.instAccesses            0                       # ITB inst accesses
system.cpu.dtb.stage2_mmu.stage2_tlb.hits            0                       # Total TLB (inst and data) hits
system.cpu.dtb.stage2_mmu.stage2_tlb.misses            0                       # Total TLB (inst and data) misses
system.cpu.dtb.stage2_mmu.stage2_tlb.accesses            0                       # Total TLB (inst and data) accesses
system.cpu.dtb.stage2_mmu.stage2_tlb.walker.walks            0                       # Table walker walks requested
system.cpu.dtb.stage2_mmu.stage2_tlb.walker.requestOrigin_Requested::Data            0                       # Table walker requests started/completed, data/inst
system.cpu.dtb.stage2_mmu.stage2_tlb.walker.requestOrigin_Requested::Inst            0                       # Table walker requests started/completed, data/inst
system.cpu.dtb.stage2_mmu.stage2_tlb.walker.requestOrigin_Requested::total            0                       # Table walker requests started/completed, data/inst
system.cpu.dtb.stage2_mmu.stage2_tlb.walker.requestOrigin_Completed::Data            0                       # Table walker requests started/completed, data/inst
system.cpu.dtb.stage2_mmu.stage2_tlb.walker.requestOrigin_Completed::Inst            0                       # Table walker requests started/completed, data/inst
system.cpu.dtb.stage2_mmu.stage2_tlb.walker.requestOrigin_Completed::total            0                       # Table walker requests started/completed, data/inst
system.cpu.dtb.stage2_mmu.stage2_tlb.walker.requestOrigin::total            0                       # Table walker requests started/completed, data/inst
system.cpu.dtb.stage2_mmu.stage2_tlb.walker.power_state.pwrStateResidencyTicks::UNDEFINED 513803385000                       # Cumulative time (in ticks) in various power states
system.cpu.dtb.walker.walks                         0                       # Table walker walks requested
system.cpu.dtb.walker.requestOrigin_Requested::Data            0                       # Table walker requests started/completed, data/inst
system.cpu.dtb.walker.requestOrigin_Requested::Inst            0                       # Table walker requests started/completed, data/inst
system.cpu.dtb.walker.requestOrigin_Requested::total            0                       # Table walker requests started/completed, data/inst
system.cpu.dtb.walker.requestOrigin_Completed::Data            0                       # Table walker requests started/completed, data/inst
system.cpu.dtb.walker.requestOrigin_Completed::Inst            0                       # Table walker requests started/completed, data/inst
system.cpu.dtb.walker.requestOrigin_Completed::total            0                       # Table walker requests started/completed, data/inst
system.cpu.dtb.walker.requestOrigin::total            0                       # Table walker requests started/completed, data/inst
system.cpu.dtb.walker.power_state.pwrStateResidencyTicks::UNDEFINED 513803385000                       # Cumulative time (in ticks) in various power states
system.cpu.fetch2.intInstructions            45069746                       # Number of integer instructions successfully decoded
system.cpu.fetch2.fpInstructions                    0                       # Number of floating point instructions successfully decoded
system.cpu.fetch2.vecInstructions                   0                       # Number of SIMD instructions successfully decoded
system.cpu.fetch2.loadInstructions            2086145                       # Number of memory load instructions successfully decoded
system.cpu.fetch2.storeInstructions            169140                       # Number of memory store instructions successfully decoded
system.cpu.fetch2.amoInstructions                   0                       # Number of memory atomic instructions successfully decoded
system.cpu.icache.demand_hits::.cpu.inst     32134034                       # number of demand (read+write) hits
system.cpu.icache.demand_hits::total         32134034                       # number of demand (read+write) hits
system.cpu.icache.overall_hits::.cpu.inst     32134034                       # number of overall hits
system.cpu.icache.overall_hits::total        32134034                       # number of overall hits
system.cpu.icache.demand_misses::.cpu.inst          596                       # number of demand (read+write) misses
system.cpu.icache.demand_misses::total            596                       # number of demand (read+write) misses
system.cpu.icache.overall_misses::.cpu.inst          596                       # number of overall misses
system.cpu.icache.overall_misses::total           596                       # number of overall misses
system.cpu.icache.demand_miss_latency::.cpu.inst     47455500                       # number of demand (read+write) miss cycles
system.cpu.icache.demand_miss_latency::total     47455500                       # number of demand (read+write) miss cycles
system.cpu.icache.overall_miss_latency::.cpu.inst     47455500                       # number of overall miss cycles
system.cpu.icache.overall_miss_latency::total     47455500                       # number of overall miss cycles
system.cpu.icache.demand_accesses::.cpu.inst     32134630                       # number of demand (read+write) accesses
system.cpu.icache.demand_accesses::total     32134630                       # number of demand (read+write) accesses
system.cpu.icache.overall_accesses::.cpu.inst     32134630                       # number of overall (read+write) accesses
system.cpu.icache.overall_accesses::total     32134630                       # number of overall (read+write) accesses
system.cpu.icache.demand_miss_rate::.cpu.inst     0.000019                       # miss rate for demand accesses
system.cpu.icache.demand_miss_rate::total     0.000019                       # miss rate for demand accesses
system.cpu.icache.overall_miss_rate::.cpu.inst     0.000019                       # miss rate for overall accesses
system.cpu.icache.overall_miss_rate::total     0.000019                       # miss rate for overall accesses
system.cpu.icache.demand_avg_miss_latency::.cpu.inst 79623.322148                       # average overall miss latency
system.cpu.icache.demand_avg_miss_latency::total 79623.322148                       # average overall miss latency
system.cpu.icache.overall_avg_miss_latency::.cpu.inst 79623.322148                       # average overall miss latency
system.cpu.icache.overall_avg_miss_latency::total 79623.322148                       # average overall miss latency
system.cpu.icache.blocked_cycles::no_mshrs            0                       # number of cycles access was blocked
system.cpu.icache.blocked_cycles::no_targets            0                       # number of cycles access was blocked
system.cpu.icache.blocked::no_mshrs                 0                       # number of cycles access was blocked
system.cpu.icache.blocked::no_targets               0                       # number of cycles access was blocked
system.cpu.icache.avg_blocked_cycles::no_mshrs          nan                       # average number of cycles each access was blocked
system.cpu.icache.avg_blocked_cycles::no_targets          nan                       # average number of cycles each access was blocked
system.cpu.icache.writebacks::.writebacks          120                       # number of writebacks
system.cpu.icache.writebacks::total               120                       # number of writebacks
system.cpu.icache.demand_mshr_misses::.cpu.inst          596                       # number of demand (read+write) MSHR misses
system.cpu.icache.demand_mshr_misses::total          596                       # number of demand (read+write) MSHR misses
system.cpu.icache.overall_mshr_misses::.cpu.inst          596                       # number of overall MSHR misses
system.cpu.icache.overall_mshr_misses::total          596                       # number of overall MSHR misses
system.cpu.icache.demand_mshr_miss_latency::.cpu.inst     46859500                       # number of demand (read+write) MSHR miss cycles
system.cpu.icache.demand_mshr_miss_latency::total     46859500                       # number of demand (read+write) MSHR miss cycles
system.cpu.icache.overall_mshr_miss_latency::.cpu.inst     46859500                       # number of overall MSHR miss cycles
system.cpu.icache.overall_mshr_miss_latency::total     46859500                       # number of overall MSHR miss cycles
system.cpu.icache.demand_mshr_miss_rate::.cpu.inst     0.000019                       # mshr miss rate for demand accesses
system.cpu.icache.demand_mshr_miss_rate::total     0.000019                       # mshr miss rate for demand accesses
system.cpu.icache.overall_mshr_miss_rate::.cpu.inst     0.000019                       # mshr miss rate for overall accesses
system.cpu.icache.overall_mshr_miss_rate::total     0.000019                       # mshr miss rate for overall accesses
system.cpu.icache.demand_avg_mshr_miss_latency::.cpu.inst 78623.322148                       # average overall mshr miss latency
system.cpu.icache.demand_avg_mshr_miss_latency::total 78623.322148                       # average overall mshr miss latency
system.cpu.icache.overall_avg_mshr_miss_latency::.cpu.inst 78623.322148                       # average overall mshr miss latency
system.cpu.icache.overall_avg_mshr_miss_latency::total 78623.322148                       # average overall mshr miss latency
system.cpu.icache.replacements                    120                       # number of replacements
system.cpu.icache.ReadReq_hits::.cpu.inst     32134034                       # number of ReadReq hits
system.cpu.icache.ReadReq_hits::total        32134034                       # number of ReadReq hits
system.cpu.icache.ReadReq_misses::.cpu.inst          596                       # number of ReadReq misses
system.cpu.icache.ReadReq_misses::total           596                       # number of ReadReq misses
system.cpu.icache.ReadReq_miss_latency::.cpu.inst     47455500                       # number of ReadReq miss cycles
system.cpu.icache.ReadReq_miss_latency::total     47455500                       # number of ReadReq miss cycles
system.cpu.icache.ReadReq_accesses::.cpu.inst     32134630                       # number of ReadReq accesses(hits+misses)
system.cpu.icache.ReadReq_accesses::total     32134630                       # number of ReadReq accesses(hits+misses)
system.cpu.icache.ReadReq_miss_rate::.cpu.inst     0.000019                       # miss rate for ReadReq accesses
system.cpu.icache.ReadReq_miss_rate::total     0.000019                       # miss rate for ReadReq accesses
system.cpu.icache.ReadReq_avg_miss_latency::.cpu.inst 79623.322148                       # average ReadReq miss latency
system.cpu.icache.ReadReq_avg_miss_latency::total 79623.322148                       # average ReadReq miss latency
system.cpu.icache.ReadReq_mshr_misses::.cpu.inst          596                       # number of ReadReq MSHR misses
system.cpu.icache.ReadReq_mshr_misses::total          596                       # number of ReadReq MSHR misses
system.cpu.icache.ReadReq_mshr_miss_latency::.cpu.inst     46859500                       # number of ReadReq MSHR miss cycles
system.cpu.icache.ReadReq_mshr_miss_latency::total     46859500                       # number of ReadReq MSHR miss cycles
system.cpu.icache.ReadReq_mshr_miss_rate::.cpu.inst     0.000019                       # mshr miss rate for ReadReq accesses
system.cpu.icache.ReadReq_mshr_miss_rate::total     0.000019                       # mshr miss rate for ReadReq accesses
system.cpu.icache.ReadReq_avg_mshr_miss_latency::.cpu.inst 78623.322148                       # average ReadReq mshr miss latency
system.cpu.icache.ReadReq_avg_mshr_miss_latency::total 78623.322148                       # average ReadReq mshr miss latency
system.cpu.icache.power_state.pwrStateResidencyTicks::UNDEFINED 513803385000                       # Cumulative time (in ticks) in various power states
system.cpu.icache.tags.tagsinuse           431.077404                       # Cycle average of tags in use
system.cpu.icache.tags.total_refs            32134630                       # Total number of references to valid blocks.
system.cpu.icache.tags.sampled_refs               596                       # Sample count of references to valid blocks.
system.cpu.icache.tags.avg_refs          53917.164430                       # Average number of references to valid blocks.
system.cpu.icache.tags.warmup_cycle             87500                       # Cycle when the warmup percentage was hit.
system.cpu.icache.tags.occ_blocks::.cpu.inst   431.077404                       # Average occupied blocks per requestor
system.cpu.icache.tags.occ_percent::.cpu.inst     0.841948                       # Average percentage of cache occupancy
system.cpu.icache.tags.occ_percent::total     0.841948                       # Average percentage of cache occupancy
system.cpu.icache.tags.occ_task_id_blocks::1024          476                       # Occupied blocks per task id
system.cpu.icache.tags.age_task_id_blocks_1024::4          476                       # Occupied blocks per task id
system.cpu.icache.tags.occ_task_id_percent::1024     0.929688                       # Percentage of cache occupancy per task id
system.cpu.icache.tags.tag_accesses         257077636                       # Number of tag accesses
system.cpu.icache.tags.data_accesses        257077636                       # Number of data accesses
system.cpu.icache.tags.power_state.pwrStateResidencyTicks::UNDEFINED 513803385000                       # Cumulative time (in ticks) in various power states
system.cpu.itb.instHits                             0                       # ITB inst hits
system.cpu.itb.instMisses                           0                       # ITB inst misses
system.cpu.itb.readHits                             0                       # DTB read hits
system.cpu.itb.readMisses                           0                       # DTB read misses
system.cpu.itb.writeHits                            0                       # DTB write hits
system.cpu.itb.writeMisses                          0                       # DTB write misses
system.cpu.itb.inserts                              0                       # Number of times an entry is inserted into the TLB
system.cpu.itb.flushTlb                             0                       # Number of times complete TLB was flushed
system.cpu.itb.flushTlbMva                          0                       # Number of times TLB was flushed by MVA
system.cpu.itb.flushTlbMvaAsid                      0                       # Number of times TLB was flushed by MVA & ASID
system.cpu.itb.flushTlbAsid                         0                       # Number of times TLB was flushed by ASID
system.cpu.itb.flushedEntries                       0                       # Number of entries that have been flushed from TLB
system.cpu.itb.alignFaults                          0                       # Number of TLB faults due to alignment restrictions
system.cpu.itb.prefetchFaults                       0                       # Number of TLB faults due to prefetch
system.cpu.itb.domainFaults                         0                       # Number of TLB faults due to domain restrictions
system.cpu.itb.permsFaults                          0                       # Number of TLB faults due to permissions restrictions
system.cpu.itb.readAccesses                         0                       # DTB read accesses
system.cpu.itb.writeAccesses                        0                       # DTB write accesses
system.cpu.itb.instAccesses                         0                       # ITB inst accesses
system.cpu.itb.hits                                 0                       # Total TLB (inst and data) hits
system.cpu.itb.misses                               0                       # Total TLB (inst and data) misses
system.cpu.itb.accesses                             0                       # Total TLB (inst and data) accesses
system.cpu.itb.stage2_mmu.stage2_tlb.instHits            0                       # ITB inst hits
system.cpu.itb.stage2_mmu.stage2_tlb.instMisses            0                       # ITB inst misses
system.cpu.itb.stage2_mmu.stage2_tlb.readHits            0                       # DTB read hits
system.cpu.itb.stage2_mmu.stage2_tlb.readMisses            0                       # DTB read misses
system.cpu.itb.stage2_mmu.stage2_tlb.writeHits            0                       # DTB write hits
system.cpu.itb.stage2_mmu.stage2_tlb.writeMisses            0                       # DTB write misses
system.cpu.itb.stage2_mmu.stage2_tlb.inserts            0                       # Number of times an entry is inserted into the TLB
system.cpu.itb.stage2_mmu.stage2_tlb.flushTlb            0                       # Number of times complete TLB was flushed
system.cpu.itb.stage2_mmu.stage2_tlb.flushTlbMva            0                       # Number of times TLB was flushed by MVA
system.cpu.itb.stage2_mmu.stage2_tlb.flushTlbMvaAsid            0                       # Number of times TLB was flushed by MVA & ASID
system.cpu.itb.stage2_mmu.stage2_tlb.flushTlbAsid            0                       # Number of times TLB was flushed by ASID
system.cpu.itb.stage2_mmu.stage2_tlb.flushedEntries            0                       # Number of entries that have been flushed from TLB
system.cpu.itb.stage2_mmu.stage2_tlb.alignFaults            0                       # Number of TLB faults due to alignment restrictions
system.cpu.itb.stage2_mmu.stage2_tlb.prefetchFaults            0                       # Number of TLB faults due to prefetch
system.cpu.itb.stage2_mmu.stage2_tlb.domainFaults            0                       # Number of TLB faults due to domain restrictions
system.cpu.itb.stage2_mmu.stage2_tlb.permsFaults            0                       # Number of TLB faults due to permissions restrictions
system.cpu.itb.stage2_mmu.stage2_tlb.readAccesses            0                       # DTB read accesses
system.cpu.itb.stage2_mmu.stage2_tlb.writeAccesses            0                       # DTB write accesses
system.cpu.itb.stage2_mmu.stage2_tlb.instAccesses            0                       # ITB inst accesses
system.cpu.itb.stage2_mmu.stage2_tlb.hits            0                       # Total TLB (inst and data) hits
system.cpu.itb.stage2_mmu.stage2_tlb.misses            0                       # Total TLB (inst and data) misses
system.cpu.itb.stage2_mmu.stage2_tlb.accesses            0                       # Total TLB (inst and data) accesses
system.cpu.itb.stage2_mmu.stage2_tlb.walker.walks            0                       # Table walker walks requested
system.cpu.itb.stage2_mmu.stage2_tlb.walker.requestOrigin_Requested::Data            0                       # Table walker requests started/completed, data/inst
system.cpu.itb.stage2_mmu.stage2_tlb.walker.requestOrigin_Requested::Inst            0                       # Table walker requests started/completed, data/inst
system.cpu.itb.stage2_mmu.stage2_tlb.walker.requestOrigin_Requested::total            0                       # Table walker requests started/completed, data/inst
system.cpu.itb.stage2_mmu.stage2_tlb.walker.requestOrigin_Completed::Data            0                       # Table walker requests started/completed, data/inst
system.cpu.itb.stage2_mmu.stage2_tlb.walker.requestOrigin_Completed::Inst            0                       # Table walker requests started/completed, data/inst
system.cpu.itb.stage2_mmu.stage2_tlb.walker.requestOrigin_Completed::total            0                       # Table walker requests started/completed, data/inst
system.cpu.itb.stage2_mmu.stage2_tlb.walker.requestOrigin::total            0                       # Table walker requests started/completed, data/inst
system.cpu.itb.stage2_mmu.stage2_tlb.walker.power_state.pwrStateResidencyTicks::UNDEFINED 513803385000                       # Cumulative time (in ticks) in various power states
system.cpu.itb.walker.walks                         0                       # Table walker walks requested
system.cpu.itb.walker.requestOrigin_Requested::Data            0                       # Table walker requests started/completed, data/inst
system.cpu.itb.walker.requestOrigin_Requested::Inst            0                       # Table walker requests started/completed, data/inst
system.cpu.itb.walker.requestOrigin_Requested::total            0                       # Table walker requests started/completed, data/inst
system.cpu.itb.walker.requestOrigin_Completed::Data            0                       # Table walker requests started/completed, data/inst
system.cpu.itb.walker.requestOrigin_Completed::Inst            0                       # Table walker requests started/completed, data/inst
system.cpu.itb.walker.requestOrigin_Completed::total            0                       # Table walker requests started/completed, data/inst
system.cpu.itb.walker.requestOrigin::total            0                       # Table walker requests started/completed, data/inst
system.cpu.itb.walker.power_state.pwrStateResidencyTicks::UNDEFINED 513803385000                       # Cumulative time (in ticks) in various power states
system.cpu.power_state.pwrStateResidencyTicks::ON 513803385000                       # Cumulative time (in ticks) in various power states
system.cpu.thread_0.numInsts                100000000                       # Number of Instructions committed
system.cpu.thread_0.numOps                  184220346                       # Number of Ops committed
system.cpu.thread_0.numMemRefs                      0                       # Number of Memory References
system.cpu_clk_domain.clock                       500                       # Clock period in ticks
system.cpu_voltage_domain.voltage                   1                       # Voltage in Volts
system.l2.demand_hits::.cpu.inst                   26                       # number of demand (read+write) hits
system.l2.demand_hits::.cpu.data                   59                       # number of demand (read+write) hits
system.l2.demand_hits::total                       85                       # number of demand (read+write) hits
system.l2.overall_hits::.cpu.inst                  26                       # number of overall hits
system.l2.overall_hits::.cpu.data                  59                       # number of overall hits
system.l2.overall_hits::total                      85                       # number of overall hits
system.l2.demand_misses::.cpu.inst                570                       # number of demand (read+write) misses
system.l2.demand_misses::.cpu.data            5263264                       # number of demand (read+write) misses
system.l2.demand_misses::total                5263834                       # number of demand (read+write) misses
system.l2.overall_misses::.cpu.inst               570                       # number of overall misses
system.l2.overall_misses::.cpu.data           5263264                       # number of overall misses
system.l2.overall_misses::total               5263834                       # number of overall misses
system.l2.demand_miss_latency::.cpu.inst     45671500                       # number of demand (read+write) miss cycles
system.l2.demand_miss_latency::.cpu.data 424006014500                       # number of demand (read+write) miss cycles
system.l2.demand_miss_latency::total     424051686000                       # number of demand (read+write) miss cycles
system.l2.overall_miss_latency::.cpu.inst     45671500                       # number of overall miss cycles
system.l2.overall_miss_latency::.cpu.data 424006014500                       # number of overall miss cycles
system.l2.overall_miss_latency::total    424051686000                       # number of overall miss cycles
system.l2.demand_accesses::.cpu.inst              596                       # number of demand (read+write) accesses
system.l2.demand_accesses::.cpu.data          5263323                       # number of demand (read+write) accesses
system.l2.demand_accesses::total              5263919                       # number of demand (read+write) accesses
system.l2.overall_accesses::.cpu.inst             596                       # number of overall (read+write) accesses
system.l2.overall_accesses::.cpu.data         5263323                       # number of overall (read+write) accesses
system.l2.overall_accesses::total             5263919                       # number of overall (read+write) accesses
system.l2.demand_miss_rate::.cpu.inst        0.956376                       # miss rate for demand accesses
system.l2.demand_miss_rate::.cpu.data        0.999989                       # miss rate for demand accesses
system.l2.demand_miss_rate::total            0.999984                       # miss rate for demand accesses
system.l2.overall_miss_rate::.cpu.inst       0.956376                       # miss rate for overall accesses
system.l2.overall_miss_rate::.cpu.data       0.999989                       # miss rate for overall accesses
system.l2.overall_miss_rate::total           0.999984                       # miss rate for overall accesses
system.l2.demand_avg_miss_latency::.cpu.inst 80125.438596                       # average overall miss latency
system.l2.demand_avg_miss_latency::.cpu.data 80559.518675                       # average overall miss latency
system.l2.demand_avg_miss_latency::total 80559.471670                       # average overall miss latency
system.l2.overall_avg_miss_latency::.cpu.inst 80125.438596                       # average overall miss latency
system.l2.overall_avg_miss_latency::.cpu.data 80559.518675                       # average overall miss latency
system.l2.overall_avg_miss_latency::total 80559.471670                       # average overall miss latency
system.l2.blocked_cycles::no_mshrs                  0                       # number of cycles access was blocked
system.l2.blocked_cycles::no_targets                0                       # number of cycles access was blocked
system.l2.blocked::no_mshrs                         0                       # number of cycles access was blocked
system.l2.blocked::no_targets                       0                       # number of cycles access was blocked
system.l2.avg_blocked_cycles::no_mshrs            nan                       # average number of cycles each access was blocked
system.l2.avg_blocked_cycles::no_targets          nan                       # average number of cycles each access was blocked
system.l2.writebacks::.writebacks             5230253                       # number of writebacks
system.l2.writebacks::total                   5230253                       # number of writebacks
system.l2.demand_mshr_hits::.cpu.inst               2                       # number of demand (read+write) MSHR hits
system.l2.demand_mshr_hits::.cpu.data               3                       # number of demand (read+write) MSHR hits
system.l2.demand_mshr_hits::total                   5                       # number of demand (read+write) MSHR hits
system.l2.overall_mshr_hits::.cpu.inst              2                       # number of overall MSHR hits
system.l2.overall_mshr_hits::.cpu.data              3                       # number of overall MSHR hits
system.l2.overall_mshr_hits::total                  5                       # number of overall MSHR hits
system.l2.demand_mshr_misses::.cpu.inst           568                       # number of demand (read+write) MSHR misses
system.l2.demand_mshr_misses::.cpu.data       5263261                       # number of demand (read+write) MSHR misses
system.l2.demand_mshr_misses::total           5263829                       # number of demand (read+write) MSHR misses
system.l2.overall_mshr_misses::.cpu.inst          568                       # number of overall MSHR misses
system.l2.overall_mshr_misses::.cpu.data      5263261                       # number of overall MSHR misses
system.l2.overall_mshr_misses::total          5263829                       # number of overall MSHR misses
system.l2.demand_mshr_miss_latency::.cpu.inst     39826500                       # number of demand (read+write) MSHR miss cycles
system.l2.demand_mshr_miss_latency::.cpu.data 371373209000                       # number of demand (read+write) MSHR miss cycles
system.l2.demand_mshr_miss_latency::total 371413035500                       # number of demand (read+write) MSHR miss cycles
system.l2.overall_mshr_miss_latency::.cpu.inst     39826500                       # number of overall MSHR miss cycles
system.l2.overall_mshr_miss_latency::.cpu.data 371373209000                       # number of overall MSHR miss cycles
system.l2.overall_mshr_miss_latency::total 371413035500                       # number of overall MSHR miss cycles
system.l2.demand_mshr_miss_rate::.cpu.inst     0.953020                       # mshr miss rate for demand accesses
system.l2.demand_mshr_miss_rate::.cpu.data     0.999988                       # mshr miss rate for demand accesses
system.l2.demand_mshr_miss_rate::total       0.999983                       # mshr miss rate for demand accesses
system.l2.overall_mshr_miss_rate::.cpu.inst     0.953020                       # mshr miss rate for overall accesses
system.l2.overall_mshr_miss_rate::.cpu.data     0.999988                       # mshr miss rate for overall accesses
system.l2.overall_mshr_miss_rate::total      0.999983                       # mshr miss rate for overall accesses
system.l2.demand_avg_mshr_miss_latency::.cpu.inst 70117.077465                       # average overall mshr miss latency
system.l2.demand_avg_mshr_miss_latency::.cpu.data 70559.527449                       # average overall mshr miss latency
system.l2.demand_avg_mshr_miss_latency::total 70559.479706                       # average overall mshr miss latency
system.l2.overall_avg_mshr_miss_latency::.cpu.inst 70117.077465                       # average overall mshr miss latency
system.l2.overall_avg_mshr_miss_latency::.cpu.data 70559.527449                       # average overall mshr miss latency
system.l2.overall_avg_mshr_miss_latency::total 70559.479706                       # average overall mshr miss latency
system.l2.replacements                        5231163                       # number of replacements
system.l2.WritebackDirty_hits::.writebacks      5262023                       # number of WritebackDirty hits
system.l2.WritebackDirty_hits::total          5262023                       # number of WritebackDirty hits
system.l2.WritebackDirty_accesses::.writebacks      5262023                       # number of WritebackDirty accesses(hits+misses)
system.l2.WritebackDirty_accesses::total      5262023                       # number of WritebackDirty accesses(hits+misses)
system.l2.WritebackClean_hits::.writebacks          119                       # number of WritebackClean hits
system.l2.WritebackClean_hits::total              119                       # number of WritebackClean hits
system.l2.WritebackClean_accesses::.writebacks          119                       # number of WritebackClean accesses(hits+misses)
system.l2.WritebackClean_accesses::total          119                       # number of WritebackClean accesses(hits+misses)
system.l2.ReadExReq_hits::.cpu.data                10                       # number of ReadExReq hits
system.l2.ReadExReq_hits::total                    10                       # number of ReadExReq hits
system.l2.ReadExReq_misses::.cpu.data         5262990                       # number of ReadExReq misses
system.l2.ReadExReq_misses::total             5262990                       # number of ReadExReq misses
system.l2.ReadExReq_miss_latency::.cpu.data 423981968000                       # number of ReadExReq miss cycles
system.l2.ReadExReq_miss_latency::total  423981968000                       # number of ReadExReq miss cycles
system.l2.ReadExReq_accesses::.cpu.data       5263000                       # number of ReadExReq accesses(hits+misses)
system.l2.ReadExReq_accesses::total           5263000                       # number of ReadExReq accesses(hits+misses)
system.l2.ReadExReq_miss_rate::.cpu.data     0.999998                       # miss rate for ReadExReq accesses
system.l2.ReadExReq_miss_rate::total         0.999998                       # miss rate for ReadExReq accesses
system.l2.ReadExReq_avg_miss_latency::.cpu.data 80559.143757                       # average ReadExReq miss latency
system.l2.ReadExReq_avg_miss_latency::total 80559.143757                       # average ReadExReq miss latency
system.l2.ReadExReq_mshr_misses::.cpu.data      5262990                       # number of ReadExReq MSHR misses
system.l2.ReadExReq_mshr_misses::total        5262990                       # number of ReadExReq MSHR misses
system.l2.ReadExReq_mshr_miss_latency::.cpu.data 371352068000                       # number of ReadExReq MSHR miss cycles
system.l2.ReadExReq_mshr_miss_latency::total 371352068000                       # number of ReadExReq MSHR miss cycles
system.l2.ReadExReq_mshr_miss_rate::.cpu.data     0.999998                       # mshr miss rate for ReadExReq accesses
system.l2.ReadExReq_mshr_miss_rate::total     0.999998                       # mshr miss rate for ReadExReq accesses
system.l2.ReadExReq_avg_mshr_miss_latency::.cpu.data 70559.143757                       # average ReadExReq mshr miss latency
system.l2.ReadExReq_avg_mshr_miss_latency::total 70559.143757                       # average ReadExReq mshr miss latency
system.l2.ReadCleanReq_hits::.cpu.inst             26                       # number of ReadCleanReq hits
system.l2.ReadCleanReq_hits::total                 26                       # number of ReadCleanReq hits
system.l2.ReadCleanReq_misses::.cpu.inst          570                       # number of ReadCleanReq misses
system.l2.ReadCleanReq_misses::total              570                       # number of ReadCleanReq misses
system.l2.ReadCleanReq_miss_latency::.cpu.inst     45671500                       # number of ReadCleanReq miss cycles
system.l2.ReadCleanReq_miss_latency::total     45671500                       # number of ReadCleanReq miss cycles
system.l2.ReadCleanReq_accesses::.cpu.inst          596                       # number of ReadCleanReq accesses(hits+misses)
system.l2.ReadCleanReq_accesses::total            596                       # number of ReadCleanReq accesses(hits+misses)
system.l2.ReadCleanReq_miss_rate::.cpu.inst     0.956376                       # miss rate for ReadCleanReq accesses
system.l2.ReadCleanReq_miss_rate::total      0.956376                       # miss rate for ReadCleanReq accesses
system.l2.ReadCleanReq_avg_miss_latency::.cpu.inst 80125.438596                       # average ReadCleanReq miss latency
system.l2.ReadCleanReq_avg_miss_latency::total 80125.438596                       # average ReadCleanReq miss latency
system.l2.ReadCleanReq_mshr_hits::.cpu.inst            2                       # number of ReadCleanReq MSHR hits
system.l2.ReadCleanReq_mshr_hits::total             2                       # number of ReadCleanReq MSHR hits
system.l2.ReadCleanReq_mshr_misses::.cpu.inst          568                       # number of ReadCleanReq MSHR misses
system.l2.ReadCleanReq_mshr_misses::total          568                       # number of ReadCleanReq MSHR misses
system.l2.ReadCleanReq_mshr_miss_latency::.cpu.inst     39826500                       # number of ReadCleanReq MSHR miss cycles
system.l2.ReadCleanReq_mshr_miss_latency::total     39826500                       # number of ReadCleanReq MSHR miss cycles
system.l2.ReadCleanReq_mshr_miss_rate::.cpu.inst     0.953020                       # mshr miss rate for ReadCleanReq accesses
system.l2.ReadCleanReq_mshr_miss_rate::total     0.953020                       # mshr miss rate for ReadCleanReq accesses
system.l2.ReadCleanReq_avg_mshr_miss_latency::.cpu.inst 70117.077465                       # average ReadCleanReq mshr miss latency
system.l2.ReadCleanReq_avg_mshr_miss_latency::total 70117.077465                       # average ReadCleanReq mshr miss latency
system.l2.ReadSharedReq_hits::.cpu.data            49                       # number of ReadSharedReq hits
system.l2.ReadSharedReq_hits::total                49                       # number of ReadSharedReq hits
system.l2.ReadSharedReq_misses::.cpu.data          274                       # number of ReadSharedReq misses
system.l2.ReadSharedReq_misses::total             274                       # number of ReadSharedReq misses
system.l2.ReadSharedReq_miss_latency::.cpu.data     24046500                       # number of ReadSharedReq miss cycles
system.l2.ReadSharedReq_miss_latency::total     24046500                       # number of ReadSharedReq miss cycles
system.l2.ReadSharedReq_accesses::.cpu.data          323                       # number of ReadSharedReq accesses(hits+misses)
system.l2.ReadSharedReq_accesses::total           323                       # number of ReadSharedReq accesses(hits+misses)
system.l2.ReadSharedReq_miss_rate::.cpu.data     0.848297                       # miss rate for ReadSharedReq accesses
system.l2.ReadSharedReq_miss_rate::total     0.848297                       # miss rate for ReadSharedReq accesses
system.l2.ReadSharedReq_avg_miss_latency::.cpu.data 87760.948905                       # average ReadSharedReq miss latency
system.l2.ReadSharedReq_avg_miss_latency::total 87760.948905                       # average ReadSharedReq miss latency
system.l2.ReadSharedReq_mshr_hits::.cpu.data            3                       # number of ReadSharedReq MSHR hits
system.l2.ReadSharedReq_mshr_hits::total            3                       # number of ReadSharedReq MSHR hits
system.l2.ReadSharedReq_mshr_misses::.cpu.data          271                       # number of ReadSharedReq MSHR misses
system.l2.ReadSharedReq_mshr_misses::total          271                       # number of ReadSharedReq MSHR misses
system.l2.ReadSharedReq_mshr_miss_latency::.cpu.data     21141000                       # number of ReadSharedReq MSHR miss cycles
system.l2.ReadSharedReq_mshr_miss_latency::total     21141000                       # number of ReadSharedReq MSHR miss cycles
system.l2.ReadSharedReq_mshr_miss_rate::.cpu.data     0.839009                       # mshr miss rate for ReadSharedReq accesses
system.l2.ReadSharedReq_mshr_miss_rate::total     0.839009                       # mshr miss rate for ReadSharedReq accesses
system.l2.ReadSharedReq_avg_mshr_miss_latency::.cpu.data 78011.070111                       # average ReadSharedReq mshr miss latency
system.l2.ReadSharedReq_avg_mshr_miss_latency::total 78011.070111                       # average ReadSharedReq mshr miss latency
system.l2.power_state.pwrStateResidencyTicks::UNDEFINED 513803385000                       # Cumulative time (in ticks) in various power states
system.l2.tags.tagsinuse                 32510.801212                       # Cycle average of tags in use
system.l2.tags.total_refs                    10526277                       # Total number of references to valid blocks.
system.l2.tags.sampled_refs                   5263931                       # Sample count of references to valid blocks.
system.l2.tags.avg_refs                      1.999699                       # Average number of references to valid blocks.
system.l2.tags.warmup_cycle                     77000                       # Cycle when the warmup percentage was hit.
system.l2.tags.occ_blocks::.writebacks       0.577606                       # Average occupied blocks per requestor
system.l2.tags.occ_blocks::.cpu.inst         4.913351                       # Average occupied blocks per requestor
system.l2.tags.occ_blocks::.cpu.data     32505.310255                       # Average occupied blocks per requestor
system.l2.tags.occ_percent::.writebacks      0.000018                       # Average percentage of cache occupancy
system.l2.tags.occ_percent::.cpu.inst        0.000150                       # Average percentage of cache occupancy
system.l2.tags.occ_percent::.cpu.data        0.991983                       # Average percentage of cache occupancy
system.l2.tags.occ_percent::total            0.992151                       # Average percentage of cache occupancy
system.l2.tags.occ_task_id_blocks::1024         32768                       # Occupied blocks per task id
system.l2.tags.age_task_id_blocks_1024::0          105                       # Occupied blocks per task id
system.l2.tags.age_task_id_blocks_1024::1          923                       # Occupied blocks per task id
system.l2.tags.age_task_id_blocks_1024::2         9263                       # Occupied blocks per task id
system.l2.tags.age_task_id_blocks_1024::3        22477                       # Occupied blocks per task id
system.l2.tags.occ_task_id_percent::1024            1                       # Percentage of cache occupancy per task id
system.l2.tags.tag_accesses                  89474187                       # Number of tag accesses
system.l2.tags.data_accesses                 89474187                       # Number of data accesses
system.l2.tags.power_state.pwrStateResidencyTicks::UNDEFINED 513803385000                       # Cumulative time (in ticks) in various power states
system.mem_ctrls.avgPriority_.writebacks::samples   5230253.00                       # Average QoS priority value for accepted requests
system.mem_ctrls.avgPriority_.cpu.inst::samples       568.00                       # Average QoS priority value for accepted requests
system.mem_ctrls.avgPriority_.cpu.data::samples   5263261.00                       # Average QoS priority value for accepted requests
system.mem_ctrls.priorityMinLatency      0.000000018750                       # per QoS priority minimum request to response latency (s)
system.mem_ctrls.priorityMaxLatency      0.000520174500                       # per QoS priority maximum request to response latency (s)
system.mem_ctrls.numReadWriteTurnArounds       326824                       # Number of turnarounds from READ to WRITE
system.mem_ctrls.numWriteReadTurnArounds       326824                       # Number of turnarounds from WRITE to READ
system.mem_ctrls.numStayReadState            15550935                       # Number of times bus staying in READ state
system.mem_ctrls.numStayWriteState            4914307                       # Number of times bus staying in WRITE state
system.mem_ctrls.readReqs                     5263829                       # Number of read requests accepted
system.mem_ctrls.writeReqs                    5230253                       # Number of write requests accepted
system.mem_ctrls.readBursts                   5263829                       # Number of controller read bursts, including those serviced by the write queue
system.mem_ctrls.writeBursts                  5230253                       # Number of controller write bursts, including those merged in the write queue
system.mem_ctrls.servicedByWrQ                      0                       # Number of controller read bursts serviced by the write queue
system.mem_ctrls.mergedWrBursts                     0                       # Number of controller write bursts merged with an existing one
system.mem_ctrls.neitherReadNorWriteReqs            0                       # Number of requests that are neither read nor write
system.mem_ctrls.avgRdQLen                       1.01                       # Average read queue length when enqueuing
system.mem_ctrls.avgWrQLen                      25.82                       # Average write queue length when enqueuing
system.mem_ctrls.numRdRetry                         0                       # Number of times read queue was full causing retry
system.mem_ctrls.numWrRetry                         0                       # Number of times write queue was full causing retry
system.mem_ctrls.readPktSize::0                     0                       # Read request sizes (log2)
system.mem_ctrls.readPktSize::1                     0                       # Read request sizes (log2)
system.mem_ctrls.readPktSize::2                     0                       # Read request sizes (log2)
system.mem_ctrls.readPktSize::3                     0                       # Read request sizes (log2)
system.mem_ctrls.readPktSize::4                     0                       # Read request sizes (log2)
system.mem_ctrls.readPktSize::5                     0                       # Read request sizes (log2)
system.mem_ctrls.readPktSize::6               5263829                       # Read request sizes (log2)
system.mem_ctrls.writePktSize::0                    0                       # Write request sizes (log2)
[...]
system.mem_ctrls.dram.bw_write::.writebacks    651486934                       # Write bandwidth from this memory (bytes/s)
system.mem_ctrls.dram.bw_write::total       651486934                       # Write bandwidth from this memory (bytes/s)
system.mem_ctrls.dram.bw_total::.writebacks    651486934                       # Total bandwidth to/from this memory (bytes/s)
system.mem_ctrls.dram.bw_total::.cpu.inst        70751                       # Total bandwidth to/from this memory (bytes/s)
system.mem_ctrls.dram.bw_total::.cpu.data    655598452                       # Total bandwidth to/from this memory (bytes/s)
system.mem_ctrls.dram.bw_total::total      1307156137                       # Total bandwidth to/from this memory (bytes/s)
system.mem_ctrls.dram.readBursts              5263829                       # Number of DRAM read bursts
system.mem_ctrls.dram.writeBursts             5230224                       # Number of DRAM write bursts
system.mem_ctrls.dram.perBankRdBursts::0       329235                       # Per bank write bursts
system.mem_ctrls.dram.perBankRdBursts::1       329023                       # Per bank write bursts
system.mem_ctrls.dram.perBankRdBursts::2       329069                       # Per bank write bursts
system.mem_ctrls.dram.perBankRdBursts::3       329044                       # Per bank write bursts
system.mem_ctrls.dram.perBankRdBursts::4       329101                       # Per bank write bursts
system.mem_ctrls.dram.perBankRdBursts::5       328945                       # Per bank write bursts
system.mem_ctrls.dram.perBankRdBursts::6       328902                       # Per bank write bursts
system.mem_ctrls.dram.perBankRdBursts::7       328861                       # Per bank write bursts
system.mem_ctrls.dram.perBankRdBursts::8       328869                       # Per bank write bursts
system.mem_ctrls.dram.perBankRdBursts::9       328968                       # Per bank write bursts
system.mem_ctrls.dram.perBankRdBursts::10       329028                       # Per bank write bursts
system.mem_ctrls.dram.perBankRdBursts::11       328958                       # Per bank write bursts
system.mem_ctrls.dram.perBankRdBursts::12       328970                       # Per bank write bursts
system.mem_ctrls.dram.perBankRdBursts::13       328795                       # Per bank write bursts
system.mem_ctrls.dram.perBankRdBursts::14       328976                       # Per bank write bursts
system.mem_ctrls.dram.perBankRdBursts::15       329085                       # Per bank write bursts
system.mem_ctrls.dram.perBankWrBursts::0       327083                       # Per bank write bursts
system.mem_ctrls.dram.perBankWrBursts::1       326919                       # Per bank write bursts
system.mem_ctrls.dram.perBankWrBursts::2       326962                       # Per bank write bursts
system.mem_ctrls.dram.perBankWrBursts::3       326964                       # Per bank write bursts
system.mem_ctrls.dram.perBankWrBursts::4       326975                       # Per bank write bursts
system.mem_ctrls.dram.perBankWrBursts::5       326868                       # Per bank write bursts
system.mem_ctrls.dram.perBankWrBursts::6       326784                       # Per bank write bursts
system.mem_ctrls.dram.perBankWrBursts::7       326784                       # Per bank write bursts
system.mem_ctrls.dram.perBankWrBursts::8       326784                       # Per bank write bursts
system.mem_ctrls.dram.perBankWrBursts::9       326847                       # Per bank write bursts
system.mem_ctrls.dram.perBankWrBursts::10       326921                       # Per bank write bursts
system.mem_ctrls.dram.perBankWrBursts::11       326902                       # Per bank write bursts
system.mem_ctrls.dram.perBankWrBursts::12       326908                       # Per bank write bursts
system.mem_ctrls.dram.perBankWrBursts::13       326722                       # Per bank write bursts
system.mem_ctrls.dram.perBankWrBursts::14       326845                       # Per bank write bursts
system.mem_ctrls.dram.perBankWrBursts::15       326956                       # Per bank write bursts
system.mem_ctrls.dram.totQLat             58141976250                       # Total ticks spent queuing
system.mem_ctrls.dram.totBusLat           26319145000                       # Total ticks spent in databus transfers
system.mem_ctrls.dram.totMemAccLat       156838770000                       # Total ticks spent from burst creation until serviced by the DRAM
system.mem_ctrls.dram.avgQLat                11045.57                       # Average queueing delay per DRAM burst
system.mem_ctrls.dram.avgBusLat               5000.00                       # Average bus latency per DRAM burst
system.mem_ctrls.dram.avgMemAccLat           29795.57                       # Average memory access latency per DRAM burst
system.mem_ctrls.dram.readRowHits             4835282                       # Number of row buffer hits during reads
system.mem_ctrls.dram.writeRowHits            4857364                       # Number of row buffer hits during writes
system.mem_ctrls.dram.readRowHitRate            91.86                       # Row buffer hit rate for reads
system.mem_ctrls.dram.writeRowHitRate           92.87                       # Row buffer hit rate for writes
system.mem_ctrls.dram.bytesPerActivate::samples       801406                       # Bytes accessed per row activation
system.mem_ctrls.dram.bytesPerActivate::mean   838.050406                       # Bytes accessed per row activation
system.mem_ctrls.dram.bytesPerActivate::gmean   721.725621                       # Bytes accessed per row activation
system.mem_ctrls.dram.bytesPerActivate::stdev   306.516033                       # Bytes accessed per row activation
system.mem_ctrls.dram.bytesPerActivate::0-127        28049      3.50%      3.50% # Bytes accessed per row activation
system.mem_ctrls.dram.bytesPerActivate::128-255        38945      4.86%      8.36% # Bytes accessed per row activation
system.mem_ctrls.dram.bytesPerActivate::256-383        35523      4.43%     12.79% # Bytes accessed per row activation
system.mem_ctrls.dram.bytesPerActivate::384-511        37090      4.63%     17.42% # Bytes accessed per row activation
system.mem_ctrls.dram.bytesPerActivate::512-639        31762      3.96%     21.38% # Bytes accessed per row activation
system.mem_ctrls.dram.bytesPerActivate::640-767        36676      4.58%     25.96% # Bytes accessed per row activation
system.mem_ctrls.dram.bytesPerActivate::768-895        28645      3.57%     29.53% # Bytes accessed per row activation
system.mem_ctrls.dram.bytesPerActivate::896-1023        42477      5.30%     34.83% # Bytes accessed per row activation
system.mem_ctrls.dram.bytesPerActivate::1024-1151       522239     65.17%    100.00% # Bytes accessed per row activation
system.mem_ctrls.dram.bytesPerActivate::total       801406                       # Bytes accessed per row activation
system.mem_ctrls.dram.bytesRead             336885056                       # Total number of bytes read from DRAM
system.mem_ctrls.dram.bytesWritten          334734336                       # Total number of bytes written to DRAM
system.mem_ctrls.dram.avgRdBW              655.669203                       # Average DRAM read bandwidth in MiBytes/s
system.mem_ctrls.dram.avgWrBW              651.483322                       # Average DRAM write bandwidth in MiBytes/s
system.mem_ctrls.dram.peakBW                 12800.00                       # Theoretical peak bandwidth in MiByte/s
system.mem_ctrls.dram.busUtil                   10.21                       # Data bus utilization in percentage
system.mem_ctrls.dram.busUtilRead                5.12                       # Data bus utilization in percentage for reads
system.mem_ctrls.dram.busUtilWrite               5.09                       # Data bus utilization in percentage for writes
system.mem_ctrls.dram.pageHitRate               92.36                       # Row buffer hit rate, read and write combined
system.mem_ctrls.dram.power_state.pwrStateResidencyTicks::UNDEFINED 513803385000                       # Cumulative time (in ticks) in various power states
system.mem_ctrls.dram.rank0.actEnergy      2861340720                       # Energy for activate commands per rank (pJ)
system.mem_ctrls.dram.rank0.preEnergy      1520834865                       # Energy for precharge commands per rank (pJ)
system.mem_ctrls.dram.rank0.readEnergy    18793765200                       # Energy for read commands per rank (pJ)
system.mem_ctrls.dram.rank0.writeEnergy   13652069580                       # Energy for write commands per rank (pJ)
system.mem_ctrls.dram.rank0.refreshEnergy 40558864320.000008                       # Energy for refresh commands per rank (pJ)
system.mem_ctrls.dram.rank0.actBackEnergy 123020589150                       # Energy for active background per rank (pJ)
system.mem_ctrls.dram.rank0.preBackEnergy  93704214240                       # Energy for precharge background per rank (pJ)
system.mem_ctrls.dram.rank0.actPowerDownEnergy            0                       # Energy for active power-down per rank (pJ)
system.mem_ctrls.dram.rank0.prePowerDownEnergy            0                       # Energy for precharge power-down per rank (pJ)
system.mem_ctrls.dram.rank0.selfRefreshEnergy            0                       # Energy for self refresh per rank (pJ)
system.mem_ctrls.dram.rank0.totalEnergy  294111678075                       # Total energy per rank (pJ)
system.mem_ctrls.dram.rank0.averagePower   572.420670                       # Core power per rank (mW)
system.mem_ctrls.dram.rank0.totalIdleTime            0                       # Total Idle time Per DRAM Rank
system.mem_ctrls.dram.rank0.pwrStateTime::IDLE 239797086500                       # Time in different power states
system.mem_ctrls.dram.rank0.pwrStateTime::REF  17156880000                       # Time in different power states
system.mem_ctrls.dram.rank0.pwrStateTime::SREF            0                       # Time in different power states
system.mem_ctrls.dram.rank0.pwrStateTime::PRE_PDN            0                       # Time in different power states
system.mem_ctrls.dram.rank0.pwrStateTime::ACT 256849418500                       # Time in different power states
system.mem_ctrls.dram.rank0.pwrStateTime::ACT_PDN            0                       # Time in different power states
system.mem_ctrls.dram.rank1.actEnergy      2860705260                       # Energy for activate commands per rank (pJ)
system.mem_ctrls.dram.rank1.preEnergy      1520500905                       # Energy for precharge commands per rank (pJ)
system.mem_ctrls.dram.rank1.readEnergy    18789973860                       # Energy for read commands per rank (pJ)
system.mem_ctrls.dram.rank1.writeEnergy   13649699700                       # Energy for write commands per rank (pJ)
system.mem_ctrls.dram.rank1.refreshEnergy 40558864320.000008                       # Energy for refresh commands per rank (pJ)
system.mem_ctrls.dram.rank1.actBackEnergy 122952922170                       # Energy for active background per rank (pJ)
system.mem_ctrls.dram.rank1.preBackEnergy  93761196960                       # Energy for precharge background per rank (pJ)
system.mem_ctrls.dram.rank1.actPowerDownEnergy            0                       # Energy for active power-down per rank (pJ)
system.mem_ctrls.dram.rank1.prePowerDownEnergy            0                       # Energy for precharge power-down per rank (pJ)
system.mem_ctrls.dram.rank1.selfRefreshEnergy            0                       # Energy for self refresh per rank (pJ)
system.mem_ctrls.dram.rank1.totalEnergy  294093863175                       # Total energy per rank (pJ)
system.mem_ctrls.dram.rank1.averagePower   572.385998                       # Core power per rank (mW)
system.mem_ctrls.dram.rank1.totalIdleTime            0                       # Total Idle time Per DRAM Rank
system.mem_ctrls.dram.rank1.pwrStateTime::IDLE 239945516500                       # Time in different power states
system.mem_ctrls.dram.rank1.pwrStateTime::REF  17156880000                       # Time in different power states
system.mem_ctrls.dram.rank1.pwrStateTime::SREF            0                       # Time in different power states
system.mem_ctrls.dram.rank1.pwrStateTime::PRE_PDN            0                       # Time in different power states
system.mem_ctrls.dram.rank1.pwrStateTime::ACT 256700988500                       # Time in different power states
system.mem_ctrls.dram.rank1.pwrStateTime::ACT_PDN            0                       # Time in different power states
system.mem_ctrls.power_state.pwrStateResidencyTicks::UNDEFINED 513803385000                       # Cumulative time (in ticks) in various power states
system.membus.trans_dist::ReadResp                839                       # Transaction distribution
system.membus.trans_dist::WritebackDirty      5230253                       # Transaction distribution
system.membus.trans_dist::CleanEvict              321                       # Transaction distribution
system.membus.trans_dist::ReadExReq           5262990                       # Transaction distribution
system.membus.trans_dist::ReadExResp          5262990                       # Transaction distribution
system.membus.trans_dist::ReadSharedReq           839                       # Transaction distribution
system.membus.pkt_count_system.l2.mem_side_port::system.mem_ctrls.port     15758232                       # Packet count per connected requestor and responder (bytes)
system.membus.pkt_count::total               15758232                       # Packet count per connected requestor and responder (bytes)
system.membus.pkt_size_system.l2.mem_side_port::system.mem_ctrls.port    671621248                       # Cumulative packet size per connected requestor and responder (bytes)
system.membus.pkt_size::total               671621248                       # Cumulative packet size per connected requestor and responder (bytes)
system.membus.snoops                                0                       # Total snoops (count)
system.membus.snoopTraffic                          0                       # Total snoop traffic (bytes)
system.membus.snoop_fanout::samples           5263829                       # Request fanout histogram
system.membus.snoop_fanout::mean                    0                       # Request fanout histogram
system.membus.snoop_fanout::stdev                   0                       # Request fanout histogram
system.membus.snoop_fanout::underflows              0      0.00%      0.00% # Request fanout histogram
system.membus.snoop_fanout::0                 5263829    100.00%    100.00% # Request fanout histogram
system.membus.snoop_fanout::1                       0      0.00%    100.00% # Request fanout histogram
system.membus.snoop_fanout::overflows               0      0.00%    100.00% # Request fanout histogram
system.membus.snoop_fanout::min_value               0                       # Request fanout histogram
system.membus.snoop_fanout::max_value               0                       # Request fanout histogram
system.membus.snoop_fanout::total             5263829                       # Request fanout histogram
system.membus.power_state.pwrStateResidencyTicks::UNDEFINED 513803385000                       # Cumulative time (in ticks) in various power states
system.membus.reqLayer0.occupancy         31438097000                       # Layer occupancy (ticks)
system.membus.reqLayer0.utilization               6.1                       # Layer utilization (%)
system.membus.respLayer1.occupancy        27685562750                       # Layer occupancy (ticks)
system.membus.respLayer1.utilization              5.4                       # Layer utilization (%)
system.tol2bus.trans_dist::ReadResp               919                       # Transaction distribution
system.tol2bus.trans_dist::WritebackDirty     10492276                       # Transaction distribution
system.tol2bus.trans_dist::WritebackClean          120                       # Transaction distribution
system.tol2bus.trans_dist::CleanEvict            1186                       # Transaction distribution
system.tol2bus.trans_dist::ReadExReq          5263000                       # Transaction distribution
system.tol2bus.trans_dist::ReadExResp         5263000                       # Transaction distribution
system.tol2bus.trans_dist::ReadCleanReq           596                       # Transaction distribution
system.tol2bus.trans_dist::ReadSharedReq          323                       # Transaction distribution
system.tol2bus.pkt_count_system.cpu.icache.mem_side_port::system.l2.cpu_side_port         1312                       # Packet count per connected requestor and responder (bytes)
system.tol2bus.pkt_count_system.cpu.dcache.mem_side_port::system.l2.cpu_side_port     15788945                       # Packet count per connected requestor and responder (bytes)
system.tol2bus.pkt_count::total              15790257                       # Packet count per connected requestor and responder (bytes)
system.tol2bus.pkt_size_system.cpu.icache.mem_side_port::system.l2.cpu_side_port        45824                       # Cumulative packet size per connected requestor and responder (bytes)
system.tol2bus.pkt_size_system.cpu.dcache.mem_side_port::system.l2.cpu_side_port    673622144                       # Cumulative packet size per connected requestor and responder (bytes)
system.tol2bus.pkt_size::total              673667968                       # Cumulative packet size per connected requestor and responder (bytes)
system.tol2bus.snoops                         5231163                       # Total snoops (count)
system.tol2bus.snoopTraffic                 334736192                       # Total snoop traffic (bytes)
system.tol2bus.snoop_fanout::samples         10495082                       # Request fanout histogram
system.tol2bus.snoop_fanout::mean            0.000061                       # Request fanout histogram
system.tol2bus.snoop_fanout::stdev           0.007839                       # Request fanout histogram
system.tol2bus.snoop_fanout::underflows             0      0.00%      0.00% # Request fanout histogram
system.tol2bus.snoop_fanout::0               10494437     99.99%     99.99% # Request fanout histogram
system.tol2bus.snoop_fanout::1                    645      0.01%    100.00% # Request fanout histogram
system.tol2bus.snoop_fanout::2                      0      0.00%    100.00% # Request fanout histogram
system.tol2bus.snoop_fanout::overflows              0      0.00%    100.00% # Request fanout histogram
system.tol2bus.snoop_fanout::min_value              0                       # Request fanout histogram
system.tol2bus.snoop_fanout::max_value              1                       # Request fanout histogram
system.tol2bus.snoop_fanout::total           10495082                       # Request fanout histogram
system.tol2bus.power_state.pwrStateResidencyTicks::UNDEFINED 513803385000                       # Cumulative time (in ticks) in various power states
system.tol2bus.reqLayer0.occupancy        10525312000                       # Layer occupancy (ticks)
system.tol2bus.reqLayer0.utilization              2.0                       # Layer utilization (%)
system.tol2bus.respLayer0.occupancy            894998                       # Layer occupancy (ticks)
system.tol2bus.respLayer0.utilization             0.0                       # Layer utilization (%)
system.tol2bus.respLayer1.occupancy        7894985997                       # Layer occupancy (ticks)
system.tol2bus.respLayer1.utilization             1.5                       # Layer utilization (%)
system.voltage_domain.voltage                       1                       # Voltage in Volts

---------- End Simulation Statistics   ----------
