
---------- Begin Simulation Statistics ----------
final_tick                                59269229500                       # Number of ticks from beginning of simulation (restored from checkpoints and never reset)
host_inst_rate                                 298076                       # Simulator instruction rate (inst/s)
host_mem_usage                                 724348                       # Number of bytes of host memory used
host_op_rate                                   301421                       # Simulator op (including micro ops) rate (op/s)
host_seconds                                   335.49                       # Real time elapsed on the host
host_tick_rate                              176667237                       # Simulator tick rate (ticks/s)
sim_freq                                 1000000000000                       # Frequency of simulated ticks
sim_insts                                   100000000                       # Number of instructions simulated
sim_ops                                     101122355                       # Number of ops (including micro ops) simulated
sim_seconds                                  0.059269                       # Number of seconds simulated
sim_ticks                                 59269229500                       # Number of ticks simulated
system.cpu.committedInsts                   100000000                       # Number of instructions committed
system.cpu.committedOps                     101122355                       # Number of ops (including micro ops) committed
system.cpu.cpi                               1.185385                       # CPI: cycles per instruction
system.cpu.discardedOps                        958090                       # Number of ops (including micro ops) which were discarded before commit
system.cpu.idleCycles                         2818293                       # Total number of cycles that the object has spent stopped
system.cpu.ipc                               0.843608                       # IPC: instructions per cycle
system.cpu.numCycles                        118538459                       # number of cpu cycles simulated
system.cpu.numFetchSuspends                         0                       # Number of times Execute suspended instruction fetching
system.cpu.numWorkItemsCompleted                    0                       # number of work items this cpu completed
system.cpu.numWorkItemsStarted                      0                       # number of work items this cpu started
system.cpu.op_class_0::No_OpClass                   0      0.00%      0.00% # Class of committed instruction
system.cpu.op_class_0::IntAlu                55111255     54.50%     54.50% # Class of committed instruction
system.cpu.op_class_0::IntMult                 167845      0.17%     54.67% # Class of committed instruction
system.cpu.op_class_0::IntDiv                       0      0.00%     54.67% # Class of committed instruction
system.cpu.op_class_0::FloatAdd                     0      0.00%     54.67% # Class of committed instruction
system.cpu.op_class_0::FloatCmp                     0      0.00%     54.67% # Class of committed instruction
system.cpu.op_class_0::FloatCvt                     0      0.00%     54.67% # Class of committed instruction
system.cpu.op_class_0::FloatMult                    0      0.00%     54.67% # Class of committed instruction
system.cpu.op_class_0::FloatMultAcc                 0      0.00%     54.67% # Class of committed instruction
system.cpu.op_class_0::FloatDiv                     0      0.00%     54.67% # Class of committed instruction
system.cpu.op_class_0::FloatMisc                    0      0.00%     54.67% # Class of committed instruction
system.cpu.op_class_0::FloatSqrt                    0      0.00%     54.67% # Class of committed instruction
system.cpu.op_class_0::SimdAdd                    380      0.00%     54.67% # Class of committed instruction
system.cpu.op_class_0::SimdAddAcc                   0      0.00%     54.67% # Class of committed instruction
system.cpu.op_class_0::SimdAlu                    470      0.00%     54.67% # Class of committed instruction
system.cpu.op_class_0::SimdCmp                    382      0.00%     54.67% # Class of committed instruction
system.cpu.op_class_0::SimdCvt                      0      0.00%     54.67% # Class of committed instruction
system.cpu.op_class_0::SimdMisc                    53      0.00%     54.67% # Class of committed instruction
system.cpu.op_class_0::SimdMult                     0      0.00%     54.67% # Class of committed instruction
system.cpu.op_class_0::SimdMultAcc                  0      0.00%     54.67% # Class of committed instruction
system.cpu.op_class_0::SimdShift                    0      0.00%     54.67% # Class of committed instruction
system.cpu.op_class_0::SimdShiftAcc                 0      0.00%     54.67% # Class of committed instruction
system.cpu.op_class_0::SimdDiv                      0      0.00%     54.67% # Class of committed instruction
system.cpu.op_class_0::SimdSqrt                     0      0.00%     54.67% # Class of committed instruction
system.cpu.op_class_0::SimdFloatAdd            282752      0.28%     54.95% # Class of committed instruction
system.cpu.op_class_0::SimdFloatAlu                 0      0.00%     54.95% # Class of committed instruction
system.cpu.op_class_0::SimdFloatCmp            266991      0.26%     55.21% # Class of committed instruction
system.cpu.op_class_0::SimdFloatCvt            163440      0.16%     55.37% # Class of committed instruction
system.cpu.op_class_0::SimdFloatDiv             54308      0.05%     55.43% # Class of committed instruction
system.cpu.op_class_0::SimdFloatMisc           505318      0.50%     55.93% # Class of committed instruction
system.cpu.op_class_0::SimdFloatMult            36718      0.04%     55.96% # Class of committed instruction
system.cpu.op_class_0::SimdFloatMultAcc         10949      0.01%     55.97% # Class of committed instruction
system.cpu.op_class_0::SimdFloatSqrt                0      0.00%     55.97% # Class of committed instruction
system.cpu.op_class_0::SimdReduceAdd                0      0.00%     55.97% # Class of committed instruction
system.cpu.op_class_0::SimdReduceAlu                0      0.00%     55.97% # Class of committed instruction
system.cpu.op_class_0::SimdReduceCmp                0      0.00%     55.97% # Class of committed instruction
system.cpu.op_class_0::SimdFloatReduceAdd            0      0.00%     55.97% # Class of committed instruction
system.cpu.op_class_0::SimdFloatReduceCmp            0      0.00%     55.97% # Class of committed instruction
system.cpu.op_class_0::SimdAes                      0      0.00%     55.97% # Class of committed instruction
system.cpu.op_class_0::SimdAesMix                   0      0.00%     55.97% # Class of committed instruction
system.cpu.op_class_0::SimdSha1Hash                 0      0.00%     55.97% # Class of committed instruction
system.cpu.op_class_0::SimdSha1Hash2                0      0.00%     55.97% # Class of committed instruction
system.cpu.op_class_0::SimdSha256Hash               0      0.00%     55.97% # Class of committed instruction
system.cpu.op_class_0::SimdSha256Hash2              0      0.00%     55.97% # Class of committed instruction
system.cpu.op_class_0::SimdShaSigma2                0      0.00%     55.97% # Class of committed instruction
system.cpu.op_class_0::SimdShaSigma3                0      0.00%     55.97% # Class of committed instruction
system.cpu.op_class_0::SimdPredAlu                  0      0.00%     55.97% # Class of committed instruction
system.cpu.op_class_0::MemRead               38138347     37.72%     93.69% # Class of committed instruction
system.cpu.op_class_0::MemWrite               6383147      6.31%    100.00% # Class of committed instruction
system.cpu.op_class_0::FloatMemRead                 0      0.00%    100.00% # Class of committed instruction
system.cpu.op_class_0::FloatMemWrite                0      0.00%    100.00% # Class of committed instruction
system.cpu.op_class_0::IprAccess                    0      0.00%    100.00% # Class of committed instruction
system.cpu.op_class_0::InstPrefetch                 0      0.00%    100.00% # Class of committed instruction
system.cpu.op_class_0::total                101122355                       # Class of committed instruction
system.cpu.tickCycles                       115720166                       # Number of cycles that the object actually ticked
system.cpu.workload.numSyscalls                    33                       # Number of system calls
system.membus.snoop_filter.hit_multi_requests            0                       # Number of requests hitting in the snoop filter with multiple (>1) holders of the requested data.
system.membus.snoop_filter.hit_multi_snoops            0                       # Number of snoops hitting in the snoop filter with multiple (>1) holders of the requested data.
system.membus.snoop_filter.hit_single_requests            0                       # Number of requests hitting in the snoop filter with a single holder of the requested data.
system.membus.snoop_filter.hit_single_snoops            0                       # Number of snoops hitting in the snoop filter with a single holder of the requested data.
system.membus.snoop_filter.tot_requests          3088                       # Total number of requests made to the snoop filter.
system.membus.snoop_filter.tot_snoops               0                       # Total number of snoops made to the snoop filter.
system.tol2bus.snoop_filter.hit_multi_requests         1324                       # Number of requests hitting in the snoop filter with multiple (>1) holders of the requested data.
system.tol2bus.snoop_filter.hit_multi_snoops            0                       # Number of snoops hitting in the snoop filter with multiple (>1) holders of the requested data.
system.tol2bus.snoop_filter.hit_single_requests        44174                       # Number of requests hitting in the snoop filter with a single holder of the requested data.
system.tol2bus.snoop_filter.hit_single_snoops            0                       # Number of snoops hitting in the snoop filter with a single holder of the requested data.
system.tol2bus.snoop_filter.tot_requests        89090                       # Total number of requests made to the snoop filter.
system.tol2bus.snoop_filter.tot_snoops              0                       # Total number of snoops made to the snoop filter.
system.clk_domain.clock                          1000                       # Clock period in ticks
system.cpu.branchPred.lookups                 6511497                       # Number of BP lookups
system.cpu.branchPred.condPredicted           5102125                       # Number of conditional branches predicted
system.cpu.branchPred.condIncorrect            345864                       # Number of conditional branches incorrect
system.cpu.branchPred.BTBLookups              4088575                       # Number of BTB lookups
system.cpu.branchPred.BTBHits                 4082345                       # Number of BTB hits
system.cpu.branchPred.BTBHitPct             99.847624                       # BTB Hit Percentage
system.cpu.branchPred.RASUsed                  313243                       # Number of times the RAS was used to get a target.
system.cpu.branchPred.RASIncorrect                  4                       # Number of incorrect RAS predictions.
system.cpu.branchPred.indirectLookups          674734                       # Number of indirect predictor lookups.
system.cpu.branchPred.indirectHits             102866                       # Number of indirect target hits.
system.cpu.branchPred.indirectMisses           571868                       # Number of indirect misses.
system.cpu.branchPred.indirectMispredicted        34891                       # Number of mispredicted indirect branches.
system.cpu.dcache.demand_hits::.cpu.data     43822423                       # number of demand (read+write) hits
system.cpu.dcache.demand_hits::total         43822423                       # number of demand (read+write) hits
system.cpu.dcache.overall_hits::.cpu.data     43831052                       # number of overall hits
system.cpu.dcache.overall_hits::total        43831052                       # number of overall hits
system.cpu.dcache.demand_misses::.cpu.data        44333                       # number of demand (read+write) misses
system.cpu.dcache.demand_misses::total          44333                       # number of demand (read+write) misses
system.cpu.dcache.overall_misses::.cpu.data        44400                       # number of overall misses
system.cpu.dcache.overall_misses::total         44400                       # number of overall misses
system.cpu.dcache.demand_miss_latency::.cpu.data    891734500                       # number of demand (read+write) miss cycles
system.cpu.dcache.demand_miss_latency::total    891734500                       # number of demand (read+write) miss cycles
system.cpu.dcache.overall_miss_latency::.cpu.data    891734500                       # number of overall miss cycles
system.cpu.dcache.overall_miss_latency::total    891734500                       # number of overall miss cycles
system.cpu.dcache.demand_accesses::.cpu.data     43866756                       # number of demand (read+write) accesses
system.cpu.dcache.demand_accesses::total     43866756                       # number of demand (read+write) accesses
system.cpu.dcache.overall_accesses::.cpu.data     43875452                       # number of overall (read+write) accesses
system.cpu.dcache.overall_accesses::total     43875452                       # number of overall (read+write) accesses
system.cpu.dcache.demand_miss_rate::.cpu.data     0.001011                       # miss rate for demand accesses
system.cpu.dcache.demand_miss_rate::total     0.001011                       # miss rate for demand accesses
system.cpu.dcache.overall_miss_rate::.cpu.data     0.001012                       # miss rate for overall accesses
system.cpu.dcache.overall_miss_rate::total     0.001012                       # miss rate for overall accesses
system.cpu.dcache.demand_avg_miss_latency::.cpu.data 20114.463267                       # average overall miss latency
system.cpu.dcache.demand_avg_miss_latency::total 20114.463267                       # average overall miss latency
system.cpu.dcache.overall_avg_miss_latency::.cpu.data 20084.110360                       # average overall miss latency
system.cpu.dcache.overall_avg_miss_latency::total 20084.110360                       # average overall miss latency
system.cpu.dcache.blocked_cycles::no_mshrs            0                       # number of cycles access was blocked
system.cpu.dcache.blocked_cycles::no_targets            0                       # number of cycles access was blocked
system.cpu.dcache.blocked::no_mshrs                 0                       # number of cycles access was blocked
system.cpu.dcache.blocked::no_targets               0                       # number of cycles access was blocked
system.cpu.dcache.avg_blocked_cycles::no_mshrs          nan                       # average number of cycles each access was blocked
system.cpu.dcache.avg_blocked_cycles::no_targets          nan                       # average number of cycles each access was blocked
system.cpu.dcache.writebacks::.writebacks        38838                       # number of writebacks
system.cpu.dcache.writebacks::total             38838                       # number of writebacks
system.cpu.dcache.demand_mshr_hits::.cpu.data         3433                       # number of demand (read+write) MSHR hits
system.cpu.dcache.demand_mshr_hits::total         3433                       # number of demand (read+write) MSHR hits
system.cpu.dcache.overall_mshr_hits::.cpu.data         3433                       # number of overall MSHR hits
system.cpu.dcache.overall_mshr_hits::total         3433                       # number of overall MSHR hits
system.cpu.dcache.demand_mshr_misses::.cpu.data        40900                       # number of demand (read+write) MSHR misses
system.cpu.dcache.demand_mshr_misses::total        40900                       # number of demand (read+write) MSHR misses
system.cpu.dcache.overall_mshr_misses::.cpu.data        40943                       # number of overall MSHR misses
system.cpu.dcache.overall_mshr_misses::total        40943                       # number of overall MSHR misses
system.cpu.dcache.demand_mshr_miss_latency::.cpu.data    708991000                       # number of demand (read+write) MSHR miss cycles
system.cpu.dcache.demand_mshr_miss_latency::total    708991000                       # number of demand (read+write) MSHR miss cycles
system.cpu.dcache.overall_mshr_miss_latency::.cpu.data    712875000                       # number of overall MSHR miss cycles
system.cpu.dcache.overall_mshr_miss_latency::total    712875000                       # number of overall MSHR miss cycles
system.cpu.dcache.demand_mshr_miss_rate::.cpu.data     0.000932                       # mshr miss rate for demand accesses
system.cpu.dcache.demand_mshr_miss_rate::total     0.000932                       # mshr miss rate for demand accesses
system.cpu.dcache.overall_mshr_miss_rate::.cpu.data     0.000933                       # mshr miss rate for overall accesses
system.cpu.dcache.overall_mshr_miss_rate::total     0.000933                       # mshr miss rate for overall accesses
system.cpu.dcache.demand_avg_mshr_miss_latency::.cpu.data 17334.743276                       # average overall mshr miss latency
system.cpu.dcache.demand_avg_mshr_miss_latency::total 17334.743276                       # average overall mshr miss latency
system.cpu.dcache.overall_avg_mshr_miss_latency::.cpu.data 17411.401216                       # average overall mshr miss latency
system.cpu.dcache.overall_avg_mshr_miss_latency::total 17411.401216                       # average overall mshr miss latency
system.cpu.dcache.replacements                  40431                       # number of replacements
system.cpu.dcache.ReadReq_hits::.cpu.data     37528395                       # number of ReadReq hits
system.cpu.dcache.ReadReq_hits::total        37528395                       # number of ReadReq hits
system.cpu.dcache.ReadReq_misses::.cpu.data        13511                       # number of ReadReq misses
system.cpu.dcache.ReadReq_misses::total         13511                       # number of ReadReq misses
system.cpu.dcache.ReadReq_miss_latency::.cpu.data    253879500                       # number of ReadReq miss cycles
system.cpu.dcache.ReadReq_miss_latency::total    253879500                       # number of ReadReq miss cycles
system.cpu.dcache.ReadReq_accesses::.cpu.data     37541906                       # number of ReadReq accesses(hits+misses)
system.cpu.dcache.ReadReq_accesses::total     37541906                       # number of ReadReq accesses(hits+misses)
system.cpu.dcache.ReadReq_miss_rate::.cpu.data     0.000360                       # miss rate for ReadReq accesses
system.cpu.dcache.ReadReq_miss_rate::total     0.000360                       # miss rate for ReadReq accesses
system.cpu.dcache.ReadReq_avg_miss_latency::.cpu.data 18790.578048                       # average ReadReq miss latency
system.cpu.dcache.ReadReq_avg_miss_latency::total 18790.578048                       # average ReadReq miss latency
system.cpu.dcache.ReadReq_mshr_hits::.cpu.data          724                       # number of ReadReq MSHR hits
system.cpu.dcache.ReadReq_mshr_hits::total          724                       # number of ReadReq MSHR hits
system.cpu.dcache.ReadReq_mshr_misses::.cpu.data        12787                       # number of ReadReq MSHR misses
system.cpu.dcache.ReadReq_mshr_misses::total        12787                       # number of ReadReq MSHR misses
system.cpu.dcache.ReadReq_mshr_miss_latency::.cpu.data    222907000                       # number of ReadReq MSHR miss cycles
system.cpu.dcache.ReadReq_mshr_miss_latency::total    222907000                       # number of ReadReq MSHR miss cycles
system.cpu.dcache.ReadReq_mshr_miss_rate::.cpu.data     0.000341                       # mshr miss rate for ReadReq accesses
system.cpu.dcache.ReadReq_mshr_miss_rate::total     0.000341                       # mshr miss rate for ReadReq accesses
system.cpu.dcache.ReadReq_avg_mshr_miss_latency::.cpu.data 17432.314069                       # average ReadReq mshr miss latency
system.cpu.dcache.ReadReq_avg_mshr_miss_latency::total 17432.314069                       # average ReadReq mshr miss latency
system.cpu.dcache.WriteReq_hits::.cpu.data      6294028                       # number of WriteReq hits
system.cpu.dcache.WriteReq_hits::total        6294028                       # number of WriteReq hits
system.cpu.dcache.WriteReq_misses::.cpu.data        30822                       # number of WriteReq misses
system.cpu.dcache.WriteReq_misses::total        30822                       # number of WriteReq misses
system.cpu.dcache.WriteReq_miss_latency::.cpu.data    637855000                       # number of WriteReq miss cycles
system.cpu.dcache.WriteReq_miss_latency::total    637855000                       # number of WriteReq miss cycles
system.cpu.dcache.WriteReq_accesses::.cpu.data      6324850                       # number of WriteReq accesses(hits+misses)
system.cpu.dcache.WriteReq_accesses::total      6324850                       # number of WriteReq accesses(hits+misses)
system.cpu.dcache.WriteReq_miss_rate::.cpu.data     0.004873                       # miss rate for WriteReq accesses
system.cpu.dcache.WriteReq_miss_rate::total     0.004873                       # miss rate for WriteReq accesses
system.cpu.dcache.WriteReq_avg_miss_latency::.cpu.data 20694.795925                       # average WriteReq miss latency
system.cpu.dcache.WriteReq_avg_miss_latency::total 20694.795925                       # average WriteReq miss latency
system.cpu.dcache.WriteReq_mshr_hits::.cpu.data         2709                       # number of WriteReq MSHR hits
system.cpu.dcache.WriteReq_mshr_hits::total         2709                       # number of WriteReq MSHR hits
system.cpu.dcache.WriteReq_mshr_misses::.cpu.data        28113                       # number of WriteReq MSHR misses
system.cpu.dcache.WriteReq_mshr_misses::total        28113                       # number of WriteReq MSHR misses
system.cpu.dcache.WriteReq_mshr_miss_latency::.cpu.data    486084000                       # number of WriteReq MSHR miss cycles
system.cpu.dcache.WriteReq_mshr_miss_latency::total    486084000                       # number of WriteReq MSHR miss cycles
system.cpu.dcache.WriteReq_mshr_miss_rate::.cpu.data     0.004445                       # mshr miss rate for WriteReq accesses
system.cpu.dcache.WriteReq_mshr_miss_rate::total     0.004445                       # mshr miss rate for WriteReq accesses
system.cpu.dcache.WriteReq_avg_mshr_miss_latency::.cpu.data 17290.363889                       # average WriteReq mshr miss latency
system.cpu.dcache.WriteReq_avg_mshr_miss_latency::total 17290.363889                       # average WriteReq mshr miss latency
system.cpu.dcache.SoftPFReq_hits::.cpu.data         8629                       # number of SoftPFReq hits
system.cpu.dcache.SoftPFReq_hits::total          8629                       # number of SoftPFReq hits
system.cpu.dcache.SoftPFReq_misses::.cpu.data           67                       # number of SoftPFReq misses
system.cpu.dcache.SoftPFReq_misses::total           67                       # number of SoftPFReq misses
system.cpu.dcache.SoftPFReq_accesses::.cpu.data         8696                       # number of SoftPFReq accesses(hits+misses)
system.cpu.dcache.SoftPFReq_accesses::total         8696                       # number of SoftPFReq accesses(hits+misses)
system.cpu.dcache.SoftPFReq_miss_rate::.cpu.data     0.007705                       # miss rate for SoftPFReq accesses
system.cpu.dcache.SoftPFReq_miss_rate::total     0.007705                       # miss rate for SoftPFReq accesses
system.cpu.dcache.SoftPFReq_mshr_misses::.cpu.data           43                       # number of SoftPFReq MSHR misses
system.cpu.dcache.SoftPFReq_mshr_misses::total           43                       # number of SoftPFReq MSHR misses
system.cpu.dcache.SoftPFReq_mshr_miss_latency::.cpu.data      3884000                       # number of SoftPFReq MSHR miss cycles
system.cpu.dcache.SoftPFReq_mshr_miss_latency::total      3884000                       # number of SoftPFReq MSHR miss cycles
system.cpu.dcache.SoftPFReq_mshr_miss_rate::.cpu.data     0.004945                       # mshr miss rate for SoftPFReq accesses
system.cpu.dcache.SoftPFReq_mshr_miss_rate::total     0.004945                       # mshr miss rate for SoftPFReq accesses
system.cpu.dcache.SoftPFReq_avg_mshr_miss_latency::.cpu.data 90325.581395                       # average SoftPFReq mshr miss latency
system.cpu.dcache.SoftPFReq_avg_mshr_miss_latency::total 90325.581395                       # average SoftPFReq mshr miss latency
system.cpu.dcache.LoadLockedReq_hits::.cpu.data          166                       # number of LoadLockedReq hits
system.cpu.dcache.LoadLockedReq_hits::total          166                       # number of LoadLockedReq hits
system.cpu.dcache.LoadLockedReq_accesses::.cpu.data          166                       # number of LoadLockedReq accesses(hits+misses)
system.cpu.dcache.LoadLockedReq_accesses::total          166                       # number of LoadLockedReq accesses(hits+misses)
system.cpu.dcache.StoreCondReq_hits::.cpu.data          166                       # number of StoreCondReq hits
system.cpu.dcache.StoreCondReq_hits::total          166                       # number of StoreCondReq hits
system.cpu.dcache.StoreCondReq_accesses::.cpu.data          166                       # number of StoreCondReq accesses(hits+misses)
system.cpu.dcache.StoreCondReq_accesses::total          166                       # number of StoreCondReq accesses(hits+misses)
system.cpu.dcache.power_state.pwrStateResidencyTicks::UNDEFINED  59269229500                       # Cumulative time (in ticks) in various power states
system.cpu.dcache.tags.tagsinuse           508.913654                       # Cycle average of tags in use
system.cpu.dcache.tags.total_refs            43872327                       # Total number of references to valid blocks.
system.cpu.dcache.tags.sampled_refs             40943                       # Sample count of references to valid blocks.
system.cpu.dcache.tags.avg_refs           1071.546467                       # Average number of references to valid blocks.
system.cpu.dcache.tags.warmup_cycle            186500                       # Cycle when the warmup percentage was hit.
system.cpu.dcache.tags.occ_blocks::.cpu.data   508.913654                       # Average occupied blocks per requestor
system.cpu.dcache.tags.occ_percent::.cpu.data     0.993972                       # Average percentage of cache occupancy
system.cpu.dcache.tags.occ_percent::total     0.993972                       # Average percentage of cache occupancy
system.cpu.dcache.tags.occ_task_id_blocks::1024          512                       # Occupied blocks per task id
system.cpu.dcache.tags.age_task_id_blocks_1024::0            7                       # Occupied blocks per task id
system.cpu.dcache.tags.age_task_id_blocks_1024::1           73                       # Occupied blocks per task id
system.cpu.dcache.tags.age_task_id_blocks_1024::2          296                       # Occupied blocks per task id
system.cpu.dcache.tags.age_task_id_blocks_1024::3          125                       # Occupied blocks per task id
system.cpu.dcache.tags.age_task_id_blocks_1024::4           11                       # Occupied blocks per task id
system.cpu.dcache.tags.occ_task_id_percent::1024            1                       # Percentage of cache occupancy per task id
system.cpu.dcache.tags.tag_accesses          87792511                       # Number of tag accesses
system.cpu.dcache.tags.data_accesses         87792511                       # Number of data accesses
system.cpu.dcache.tags.power_state.pwrStateResidencyTicks::UNDEFINED  59269229500                       # Cumulative time (in ticks) in various power states
system.cpu.dtb.instHits                             0                       # ITB inst hits
system.cpu.dtb.instMisses                           0                       # ITB inst misses
system.cpu.dtb.readHits                             0                       # DTB read hits
system.cpu.dtb.readMisses                           0                       # DTB read misses
system.cpu.dtb.writeHits                            0                       # DTB write hits
system.cpu.dtb.writeMisses                          0                       # DTB write misses
system.cpu.dtb.inserts                              0                       # Number of times an entry is inserted into the TLB
system.cpu.dtb.flushTlb                             0                       # Number of times complete TLB was flushed
system.cpu.dtb.flushTlbMva                          0                       # Number of times TLB was flushed by MVA
system.cpu.dtb.flushTlbMvaAsid                      0                       # Number of times TLB was flushed by MVA & ASID
system.cpu.dtb.flushTlbAsid                         0                       # Number of times TLB was flushed by ASID
system.cpu.dtb.flushedEntries                       0                       # Number of entries that have been flushed from TLB
system.cpu.dtb.alignFaults                          0                       # Number of TLB faults due to alignment restrictions
system.cpu.dtb.prefetchFaults                       0                       # Number of TLB faults due to prefetch
system.cpu.dtb.domainFaults                         0                       # Number of TLB faults due to domain restrictions
system.cpu.dtb.permsFaults                          0                       # Number of TLB faults due to permissions restrictions
system.cpu.dtb.readAccesses                         0                       # DTB read accesses
system.cpu.dtb.writeAccesses                        0                       # DTB write accesses
system.cpu.dtb.instAccesses                         0                       # ITB inst accesses
system.cpu.dtb.hits                                 0                       # Total TLB (inst and data) hits
system.cpu.dtb.misses                               0                       # Total TLB (inst and data) misses
system.cpu.dtb.accesses                             0                       # Total TLB (inst and data) accesses
system.cpu.dtb.stage2_mmu.stage2_tlb.instHits            0                       # ITB inst hits
system.cpu.dtb.stage2_mmu.stage2_tlb.instMisses            0                       # ITB inst misses
system.cpu.dtb.stage2_mmu.stage2_tlb.readHits            0                       # DTB read hits
system.cpu.dtb.stage2_mmu.stage2_tlb.readMisses            0                       # DTB read misses
system.cpu.dtb.stage2_mmu.stage2_tlb.writeHits            0                       # DTB write hits
system.cpu.dtb.stage2_mmu.stage2_tlb.writeMisses            0                       # DTB write misses
system.cpu.dtb.stage2_mmu.stage2_tlb.inserts            0                       # Number of times an entry is inserted into the TLB
system.cpu.dtb.stage2_mmu.stage2_tlb.flushTlb            0                       # Number of times complete TLB was flushed
system.cpu.dtb.stage2_mmu.stage2_tlb.flushTlbMva            0                       # Number of times TLB was flushed by MVA
system.cpu.dtb.stage2_mmu.stage2_tlb.flushTlbMvaAsid            0                       # Number of times TLB was flushed by MVA & ASID
system.cpu.dtb.stage2_mmu.stage2_tlb.flushTlbAsid            0                       # Number of times TLB was flushed by ASID
system.cpu.dtb.stage2_mmu.stage2_tlb.flushedEntries            0                       # Number of entries that have been flushed from TLB
system.cpu.dtb.stage2_mmu.stage2_tlb.alignFaults            0                       # Number of TLB faults due to alignment restrictions
system.cpu.dtb.stage2_mmu.stage2_tlb.prefetchFaults            0                       # Number of TLB faults due to prefetch
system.cpu.dtb.stage2_mmu.stage2_tlb.domainFaults            0                       # Number of TLB faults due to domain restrictions
system.cpu.dtb.stage2_mmu.stage2_tlb.permsFaults            0                       # Number of TLB faults due to permissions restrictions
system.cpu.dtb.stage2_mmu.stage2_tlb.readAccesses            0                       # DTB read accesses
system.cpu.dtb.stage2_mmu.stage2_tlb.writeAccesses            0                       # DTB write accesses
system.cpu.dtb.stage2_mmu.stage2_tlb.instAccesses            0                       # ITB inst accesses
system.cpu.dtb.stage2_mmu.stage2_tlb.hits            0                       # Total TLB (inst and data) hits
system.cpu.dtb.stage2_mmu.stage2_tlb.misses            0                       # Total TLB (inst and data) misses
system.cpu.dtb.stage2_mmu.stage2_tlb.accesses            0                       # Total TLB (inst and data) accesses
system.cpu.dtb.stage2_mmu.stage2_tlb.walker.walks            0                       # Table walker walks requested
system.cpu.dtb.stage2_mmu.stage2_tlb.walker.requestOrigin_Requested::Data            0                       # Table walker requests started/completed, data/inst
system.cpu.dtb.stage2_mmu.stage2_tlb.walker.requestOrigin_Requested::Inst            0                       # Table walker requests started/completed, data/inst
system.cpu.dtb.stage2_mmu.stage2_tlb.walker.requestOrigin_Requested::total            0                       # Table walker requests started/completed, data/inst
system.cpu.dtb.stage2_mmu.stage2_tlb.walker.requestOrigin_Completed::Data            0                       # Table walker requests started/completed, data/inst
system.cpu.dtb.stage2_mmu.stage2_tlb.walker.requestOrigin_Completed::Inst            0                       # Table walker requests started/completed, data/inst
system.cpu.dtb.stage2_mmu.stage2_tlb.walker.requestOrigin_Completed::total            0                       # Table walker requests started/completed, data/inst
system.cpu.dtb.stage2_mmu.stage2_tlb.walker.requestOrigin::total            0                       # Table walker requests started/completed, data/inst
system.cpu.dtb.stage2_mmu.stage2_tlb.walker.power_state.pwrStateResidencyTicks::UNDEFINED  59269229500                       # Cumulative time (in ticks) in various power states
system.cpu.dtb.walker.walks                         0                       # Table walker walks requested
system.cpu.dtb.walker.requestOrigin_Requested::Data            0                       # Table walker requests started/completed, data/inst
system.cpu.dtb.walker.requestOrigin_Requested::Inst            0                       # Table walker requests started/completed, data/inst
system.cpu.dtb.walker.requestOrigin_Requested::total            0                       # Table walker requests started/completed, data/inst
system.cpu.dtb.walker.requestOrigin_Completed::Data            0                       # Table walker requests started/completed, data/inst
system.cpu.dtb.walker.requestOrigin_Completed::Inst            0                       # Table walker requests started/completed, data/inst
system.cpu.dtb.walker.requestOrigin_Completed::total            0                       # Table walker requests started/completed, data/inst
system.cpu.dtb.walker.requestOrigin::total            0                       # Table walker requests started/completed, data/inst
system.cpu.dtb.walker.power_state.pwrStateResidencyTicks::UNDEFINED  59269229500                       # Cumulative time (in ticks) in various power states
system.cpu.fetch2.intInstructions            48892491                       # Number of integer instructions successfully decoded
system.cpu.fetch2.fpInstructions                    0                       # Number of floating point instructions successfully decoded
system.cpu.fetch2.vecInstructions                   0                       # Number of SIMD instructions successfully decoded
system.cpu.fetch2.loadInstructions           40556564                       # Number of memory load instructions successfully decoded
system.cpu.fetch2.storeInstructions           6265533                       # Number of memory store instructions successfully decoded
system.cpu.fetch2.amoInstructions                   0                       # Number of memory atomic instructions successfully decoded
system.cpu.icache.demand_hits::.cpu.inst     15379874                       # number of demand (read+write) hits
system.cpu.icache.demand_hits::total         15379874                       # number of demand (read+write) hits
system.cpu.icache.overall_hits::.cpu.inst     15379874                       # number of overall hits
system.cpu.icache.overall_hits::total        15379874                       # number of overall hits
system.cpu.icache.demand_misses::.cpu.inst         3986                       # number of demand (read+write) misses
system.cpu.icache.demand_misses::total           3986                       # number of demand (read+write) misses
system.cpu.icache.overall_misses::.cpu.inst         3986                       # number of overall misses
system.cpu.icache.overall_misses::total          3986                       # number of overall misses
system.cpu.icache.demand_miss_latency::.cpu.inst    112087000                       # number of demand (read+write) miss cycles
system.cpu.icache.demand_miss_latency::total    112087000                       # number of demand (read+write) miss cycles
system.cpu.icache.overall_miss_latency::.cpu.inst    112087000                       # number of overall miss cycles
system.cpu.icache.overall_miss_latency::total    112087000                       # number of overall miss cycles
system.cpu.icache.demand_accesses::.cpu.inst     15383860                       # number of demand (read+write) accesses
system.cpu.icache.demand_accesses::total     15383860                       # number of demand (read+write) accesses
system.cpu.icache.overall_accesses::.cpu.inst     15383860                       # number of overall (read+write) accesses
system.cpu.icache.overall_accesses::total     15383860                       # number of overall (read+write) accesses
system.cpu.icache.demand_miss_rate::.cpu.inst     0.000259                       # miss rate for demand accesses
system.cpu.icache.demand_miss_rate::total     0.000259                       # miss rate for demand accesses
system.cpu.icache.overall_miss_rate::.cpu.inst     0.000259                       # miss rate for overall accesses
system.cpu.icache.overall_miss_rate::total     0.000259                       # miss rate for overall accesses
system.cpu.icache.demand_avg_miss_latency::.cpu.inst 28120.170597                       # average overall miss latency
system.cpu.icache.demand_avg_miss_latency::total 28120.170597                       # average overall miss latency
system.cpu.icache.overall_avg_miss_latency::.cpu.inst 28120.170597                       # average overall miss latency
system.cpu.icache.overall_avg_miss_latency::total 28120.170597                       # average overall miss latency
system.cpu.icache.blocked_cycles::no_mshrs            0                       # number of cycles access was blocked
system.cpu.icache.blocked_cycles::no_targets            0                       # number of cycles access was blocked
system.cpu.icache.blocked::no_mshrs                 0                       # number of cycles access was blocked
system.cpu.icache.blocked::no_targets               0                       # number of cycles access was blocked
system.cpu.icache.avg_blocked_cycles::no_mshrs          nan                       # average number of cycles each access was blocked
system.cpu.icache.avg_blocked_cycles::no_targets          nan                       # average number of cycles each access was blocked
system.cpu.icache.writebacks::.writebacks         3730                       # number of writebacks
system.cpu.icache.writebacks::total              3730                       # number of writebacks
system.cpu.icache.demand_mshr_misses::.cpu.inst         3986                       # number of demand (read+write) MSHR misses
system.cpu.icache.demand_mshr_misses::total         3986                       # number of demand (read+write) MSHR misses
system.cpu.icache.overall_mshr_misses::.cpu.inst         3986                       # number of overall MSHR misses
system.cpu.icache.overall_mshr_misses::total         3986                       # number of overall MSHR misses
system.cpu.icache.demand_mshr_miss_latency::.cpu.inst    108101000                       # number of demand (read+write) MSHR miss cycles
system.cpu.icache.demand_mshr_miss_latency::total    108101000                       # number of demand (read+write) MSHR miss cycles
system.cpu.icache.overall_mshr_miss_latency::.cpu.inst    108101000                       # number of overall MSHR miss cycles
system.cpu.icache.overall_mshr_miss_latency::total    108101000                       # number of overall MSHR miss cycles
system.cpu.icache.demand_mshr_miss_rate::.cpu.inst     0.000259                       # mshr miss rate for demand accesses
system.cpu.icache.demand_mshr_miss_rate::total     0.000259                       # mshr miss rate for demand accesses
system.cpu.icache.overall_mshr_miss_rate::.cpu.inst     0.000259                       # mshr miss rate for overall accesses
system.cpu.icache.overall_mshr_miss_rate::total     0.000259                       # mshr miss rate for overall accesses
system.cpu.icache.demand_avg_mshr_miss_latency::.cpu.inst 27120.170597                       # average overall mshr miss latency
system.cpu.icache.demand_avg_mshr_miss_latency::total 27120.170597                       # average overall mshr miss latency
system.cpu.icache.overall_avg_mshr_miss_latency::.cpu.inst 27120.170597                       # average overall mshr miss latency
system.cpu.icache.overall_avg_mshr_miss_latency::total 27120.170597                       # average overall mshr miss latency
system.cpu.icache.replacements                   3730                       # number of replacements
system.cpu.icache.ReadReq_hits::.cpu.inst     15379874                       # number of ReadReq hits
system.cpu.icache.ReadReq_hits::total        15379874                       # number of ReadReq hits
system.cpu.icache.ReadReq_misses::.cpu.inst         3986                       # number of ReadReq misses
system.cpu.icache.ReadReq_misses::total          3986                       # number of ReadReq misses
system.cpu.icache.ReadReq_miss_latency::.cpu.inst    112087000                       # number of ReadReq miss cycles
system.cpu.icache.ReadReq_miss_latency::total    112087000                       # number of ReadReq miss cycles
system.cpu.icache.ReadReq_accesses::.cpu.inst     15383860                       # number of ReadReq accesses(hits+misses)
system.cpu.icache.ReadReq_accesses::total     15383860                       # number of ReadReq accesses(hits+misses)
system.cpu.icache.ReadReq_miss_rate::.cpu.inst     0.000259                       # miss rate for ReadReq accesses
system.cpu.icache.ReadReq_miss_rate::total     0.000259                       # miss rate for ReadReq accesses
system.cpu.icache.ReadReq_avg_miss_latency::.cpu.inst 28120.170597                       # average ReadReq miss latency
system.cpu.icache.ReadReq_avg_miss_latency::total 28120.170597                       # average ReadReq miss latency
system.cpu.icache.ReadReq_mshr_misses::.cpu.inst         3986                       # number of ReadReq MSHR misses
system.cpu.icache.ReadReq_mshr_misses::total         3986                       # number of ReadReq MSHR misses
system.cpu.icache.ReadReq_mshr_miss_latency::.cpu.inst    108101000                       # number of ReadReq MSHR miss cycles
system.cpu.icache.ReadReq_mshr_miss_latency::total    108101000                       # number of ReadReq MSHR miss cycles
system.cpu.icache.ReadReq_mshr_miss_rate::.cpu.inst     0.000259                       # mshr miss rate for ReadReq accesses
system.cpu.icache.ReadReq_mshr_miss_rate::total     0.000259                       # mshr miss rate for ReadReq accesses
system.cpu.icache.ReadReq_avg_mshr_miss_latency::.cpu.inst 27120.170597                       # average ReadReq mshr miss latency
system.cpu.icache.ReadReq_avg_mshr_miss_latency::total 27120.170597                       # average ReadReq mshr miss latency
system.cpu.icache.power_state.pwrStateResidencyTicks::UNDEFINED  59269229500                       # Cumulative time (in ticks) in various power states
system.cpu.icache.tags.tagsinuse           255.905334                       # Cycle average of tags in use
system.cpu.icache.tags.total_refs            15383860                       # Total number of references to valid blocks.
system.cpu.icache.tags.sampled_refs              3986                       # Sample count of references to valid blocks.
system.cpu.icache.tags.avg_refs           3859.473156                       # Average number of references to valid blocks.
system.cpu.icache.tags.warmup_cycle             92500                       # Cycle when the warmup percentage was hit.
system.cpu.icache.tags.occ_blocks::.cpu.inst   255.905334                       # Average occupied blocks per requestor
system.cpu.icache.tags.occ_percent::.cpu.inst     0.999630                       # Average percentage of cache occupancy
system.cpu.icache.tags.occ_percent::total     0.999630                       # Average percentage of cache occupancy
system.cpu.icache.tags.occ_task_id_blocks::1024          256                       # Occupied blocks per task id
system.cpu.icache.tags.age_task_id_blocks_1024::2            7                       # Occupied blocks per task id
system.cpu.icache.tags.age_task_id_blocks_1024::3            6                       # Occupied blocks per task id
system.cpu.icache.tags.age_task_id_blocks_1024::4          243                       # Occupied blocks per task id
system.cpu.icache.tags.occ_task_id_percent::1024            1                       # Percentage of cache occupancy per task id
system.cpu.icache.tags.tag_accesses          30771706                       # Number of tag accesses
system.cpu.icache.tags.data_accesses         30771706                       # Number of data accesses
system.cpu.icache.tags.power_state.pwrStateResidencyTicks::UNDEFINED  59269229500                       # Cumulative time (in ticks) in various power states
system.cpu.itb.instHits                             0                       # ITB inst hits
system.cpu.itb.instMisses                           0                       # ITB inst misses
system.cpu.itb.readHits                             0                       # DTB read hits
system.cpu.itb.readMisses                           0                       # DTB read misses
system.cpu.itb.writeHits                            0                       # DTB write hits
system.cpu.itb.writeMisses                          0                       # DTB write misses
system.cpu.itb.inserts                              0                       # Number of times an entry is inserted into the TLB
system.cpu.itb.flushTlb                             0                       # Number of times complete TLB was flushed
system.cpu.itb.flushTlbMva                          0                       # Number of times TLB was flushed by MVA
system.cpu.itb.flushTlbMvaAsid                      0                       # Number of times TLB was flushed by MVA & ASID
system.cpu.itb.flushTlbAsid                         0                       # Number of times TLB was flushed by ASID
system.cpu.itb.flushedEntries                       0                       # Number of entries that have been flushed from TLB
system.cpu.itb.alignFaults                          0                       # Number of TLB faults due to alignment restrictions
system.cpu.itb.prefetchFaults                       0                       # Number of TLB faults due to prefetch
system.cpu.itb.domainFaults                         0                       # Number of TLB faults due to domain restrictions
system.cpu.itb.permsFaults                          0                       # Number of TLB faults due to permissions restrictions
system.cpu.itb.readAccesses                         0                       # DTB read accesses
system.cpu.itb.writeAccesses                        0                       # DTB write accesses
system.cpu.itb.instAccesses                         0                       # ITB inst accesses
system.cpu.itb.hits                                 0                       # Total TLB (inst and data) hits
system.cpu.itb.misses                               0                       # Total TLB (inst and data) misses
system.cpu.itb.accesses                             0                       # Total TLB (inst and data) accesses
system.cpu.itb.stage2_mmu.stage2_tlb.instHits            0                       # ITB inst hits
system.cpu.itb.stage2_mmu.stage2_tlb.instMisses            0                       # ITB inst misses
system.cpu.itb.stage2_mmu.stage2_tlb.readHits            0                       # DTB read hits
system.cpu.itb.stage2_mmu.stage2_tlb.readMisses            0                       # DTB read misses
system.cpu.itb.stage2_mmu.stage2_tlb.writeHits            0                       # DTB write hits
system.cpu.itb.stage2_mmu.stage2_tlb.writeMisses            0                       # DTB write misses
system.cpu.itb.stage2_mmu.stage2_tlb.inserts            0                       # Number of times an entry is inserted into the TLB
system.cpu.itb.stage2_mmu.stage2_tlb.flushTlb            0                       # Number of times complete TLB was flushed
system.cpu.itb.stage2_mmu.stage2_tlb.flushTlbMva            0                       # Number of times TLB was flushed by MVA
system.cpu.itb.stage2_mmu.stage2_tlb.flushTlbMvaAsid            0                       # Number of times TLB was flushed by MVA & ASID
system.cpu.itb.stage2_mmu.stage2_tlb.flushTlbAsid            0                       # Number of times TLB was flushed by ASID
system.cpu.itb.stage2_mmu.stage2_tlb.flushedEntries            0                       # Number of entries that have been flushed from TLB
system.cpu.itb.stage2_mmu.stage2_tlb.alignFaults            0                       # Number of TLB faults due to alignment restrictions
system.cpu.itb.stage2_mmu.stage2_tlb.prefetchFaults            0                       # Number of TLB faults due to prefetch
system.cpu.itb.stage2_mmu.stage2_tlb.domainFaults            0                       # Number of TLB faults due to domain restrictions
system.cpu.itb.stage2_mmu.stage2_tlb.permsFaults            0                       # Number of TLB faults due to permissions restrictions
system.cpu.itb.stage2_mmu.stage2_tlb.readAccesses            0                       # DTB read accesses
system.cpu.itb.stage2_mmu.stage2_tlb.writeAccesses            0                       # DTB write accesses
system.cpu.itb.stage2_mmu.stage2_tlb.instAccesses            0                       # ITB inst accesses
system.cpu.itb.stage2_mmu.stage2_tlb.hits            0                       # Total TLB (inst and data) hits
system.cpu.itb.stage2_mmu.stage2_tlb.misses            0                       # Total TLB (inst and data) misses
system.cpu.itb.stage2_mmu.stage2_tlb.accesses            0                       # Total TLB (inst and data) accesses
system.cpu.itb.stage2_mmu.stage2_tlb.walker.walks            0                       # Table walker walks requested
system.cpu.itb.stage2_mmu.stage2_tlb.walker.requestOrigin_Requested::Data            0                       # Table walker requests started/completed, data/inst
system.cpu.itb.stage2_mmu.stage2_tlb.walker.requestOrigin_Requested::Inst            0                       # Table walker requests started/completed, data/inst
system.cpu.itb.stage2_mmu.stage2_tlb.walker.requestOrigin_Requested::total            0                       # Table walker requests started/completed, data/inst
system.cpu.itb.stage2_mmu.stage2_tlb.walker.requestOrigin_Completed::Data            0                       # Table walker requests started/completed, data/inst
system.cpu.itb.stage2_mmu.stage2_tlb.walker.requestOrigin_Completed::Inst            0                       # Table walker requests started/completed, data/inst
system.cpu.itb.stage2_mmu.stage2_tlb.walker.requestOrigin_Completed::total            0                       # Table walker requests started/completed, data/inst
system.cpu.itb.stage2_mmu.stage2_tlb.walker.requestOrigin::total            0                       # Table walker requests started/completed, data/inst
system.cpu.itb.stage2_mmu.stage2_tlb.walker.power_state.pwrStateResidencyTicks::UNDEFINED  59269229500                       # Cumulative time (in ticks) in various power states
system.cpu.itb.walker.walks                         0                       # Table walker walks requested
system.cpu.itb.walker.requestOrigin_Requested::Data            0                       # Table walker requests started/completed, data/inst
system.cpu.itb.walker.requestOrigin_Requested::Inst            0                       # Table walker requests started/completed, data/inst
system.cpu.itb.walker.requestOrigin_Requested::total            0                       # Table walker requests started/completed, data/inst
system.cpu.itb.walker.requestOrigin_Completed::Data            0                       # Table walker requests started/completed, data/inst
system.cpu.itb.walker.requestOrigin_Completed::Inst            0                       # Table walker requests started/completed, data/inst
system.cpu.itb.walker.requestOrigin_Completed::total            0                       # Table walker requests started/completed, data/inst
system.cpu.itb.walker.requestOrigin::total            0                       # Table walker requests started/completed, data/inst
system.cpu.itb.walker.power_state.pwrStateResidencyTicks::UNDEFINED  59269229500                       # Cumulative time (in ticks) in various power states
system.cpu.power_state.pwrStateResidencyTicks::ON  59269229500                       # Cumulative time (in ticks) in various power states
system.cpu.thread_0.numInsts                100000000                       # Number of Instructions committed
system.cpu.thread_0.numOps                  101122355                       # Number of Ops committed
system.cpu.thread_0.numMemRefs                      0                       # Number of Memory References
system.cpu_clk_domain.clock                       500                       # Clock period in ticks
system.cpu_voltage_domain.voltage                   1                       # Voltage in Volts
system.l2.demand_hits::.cpu.inst                 3190                       # number of demand (read+write) hits
system.l2.demand_hits::.cpu.data                38638                       # number of demand (read+write) hits
system.l2.demand_hits::total                    41828                       # number of demand (read+write) hits
system.l2.overall_hits::.cpu.inst                3190                       # number of overall hits
system.l2.overall_hits::.cpu.data               38638                       # number of overall hits
system.l2.overall_hits::total                   41828                       # number of overall hits
system.l2.demand_misses::.cpu.inst                796                       # number of demand (read+write) misses
system.l2.demand_misses::.cpu.data               2305                       # number of demand (read+write) misses
system.l2.demand_misses::total                   3101                       # number of demand (read+write) misses
system.l2.overall_misses::.cpu.inst               796                       # number of overall misses
system.l2.overall_misses::.cpu.data              2305                       # number of overall misses
system.l2.overall_misses::total                  3101                       # number of overall misses
system.l2.demand_miss_latency::.cpu.inst     67353500                       # number of demand (read+write) miss cycles
system.l2.demand_miss_latency::.cpu.data    195974000                       # number of demand (read+write) miss cycles
system.l2.demand_miss_latency::total        263327500                       # number of demand (read+write) miss cycles
system.l2.overall_miss_latency::.cpu.inst     67353500                       # number of overall miss cycles
system.l2.overall_miss_latency::.cpu.data    195974000                       # number of overall miss cycles
system.l2.overall_miss_latency::total       263327500                       # number of overall miss cycles
system.l2.demand_accesses::.cpu.inst             3986                       # number of demand (read+write) accesses
system.l2.demand_accesses::.cpu.data            40943                       # number of demand (read+write) accesses
system.l2.demand_accesses::total                44929                       # number of demand (read+write) accesses
system.l2.overall_accesses::.cpu.inst            3986                       # number of overall (read+write) accesses
system.l2.overall_accesses::.cpu.data           40943                       # number of overall (read+write) accesses
system.l2.overall_accesses::total               44929                       # number of overall (read+write) accesses
system.l2.demand_miss_rate::.cpu.inst        0.199699                       # miss rate for demand accesses
system.l2.demand_miss_rate::.cpu.data        0.056298                       # miss rate for demand accesses
system.l2.demand_miss_rate::total            0.069020                       # miss rate for demand accesses
system.l2.overall_miss_rate::.cpu.inst       0.199699                       # miss rate for overall accesses
system.l2.overall_miss_rate::.cpu.data       0.056298                       # miss rate for overall accesses
system.l2.overall_miss_rate::total           0.069020                       # miss rate for overall accesses
system.l2.demand_avg_miss_latency::.cpu.inst 84614.949749                       # average overall miss latency
system.l2.demand_avg_miss_latency::.cpu.data 85021.258134                       # average overall miss latency
system.l2.demand_avg_miss_latency::total 84916.962270                       # average overall miss latency
system.l2.overall_avg_miss_latency::.cpu.inst 84614.949749                       # average overall miss latency
system.l2.overall_avg_miss_latency::.cpu.data 85021.258134                       # average overall miss latency
system.l2.overall_avg_miss_latency::total 84916.962270                       # average overall miss latency
system.l2.blocked_cycles::no_mshrs                  0                       # number of cycles access was blocked
system.l2.blocked_cycles::no_targets                0                       # number of cycles access was blocked
system.l2.blocked::no_mshrs                         0                       # number of cycles access was blocked
system.l2.blocked::no_targets                       0                       # number of cycles access was blocked
system.l2.avg_blocked_cycles::no_mshrs            nan                       # average number of cycles each access was blocked
system.l2.avg_blocked_cycles::no_targets          nan                       # average number of cycles each access was blocked
system.l2.demand_mshr_hits::.cpu.inst               3                       # number of demand (read+write) MSHR hits
system.l2.demand_mshr_hits::.cpu.data              10                       # number of demand (read+write) MSHR hits
system.l2.demand_mshr_hits::total                  13                       # number of demand (read+write) MSHR hits
system.l2.overall_mshr_hits::.cpu.inst              3                       # number of overall MSHR hits
system.l2.overall_mshr_hits::.cpu.data             10                       # number of overall MSHR hits
system.l2.overall_mshr_hits::total                 13                       # number of overall MSHR hits
system.l2.demand_mshr_misses::.cpu.inst           793                       # number of demand (read+write) MSHR misses
system.l2.demand_mshr_misses::.cpu.data          2295                       # number of demand (read+write) MSHR misses
system.l2.demand_mshr_misses::total              3088                       # number of demand (read+write) MSHR misses
system.l2.overall_mshr_misses::.cpu.inst          793                       # number of overall MSHR misses
system.l2.overall_mshr_misses::.cpu.data         2295                       # number of overall MSHR misses
system.l2.overall_mshr_misses::total             3088                       # number of overall MSHR misses
system.l2.demand_mshr_miss_latency::.cpu.inst     59207000                       # number of demand (read+write) MSHR miss cycles
system.l2.demand_mshr_miss_latency::.cpu.data    172313500                       # number of demand (read+write) MSHR miss cycles
system.l2.demand_mshr_miss_latency::total    231520500                       # number of demand (read+write) MSHR miss cycles
system.l2.overall_mshr_miss_latency::.cpu.inst     59207000                       # number of overall MSHR miss cycles
system.l2.overall_mshr_miss_latency::.cpu.data    172313500                       # number of overall MSHR miss cycles
system.l2.overall_mshr_miss_latency::total    231520500                       # number of overall MSHR miss cycles
system.l2.demand_mshr_miss_rate::.cpu.inst     0.198946                       # mshr miss rate for demand accesses
system.l2.demand_mshr_miss_rate::.cpu.data     0.056054                       # mshr miss rate for demand accesses
system.l2.demand_mshr_miss_rate::total       0.068731                       # mshr miss rate for demand accesses
system.l2.overall_mshr_miss_rate::.cpu.inst     0.198946                       # mshr miss rate for overall accesses
system.l2.overall_mshr_miss_rate::.cpu.data     0.056054                       # mshr miss rate for overall accesses
system.l2.overall_mshr_miss_rate::total      0.068731                       # mshr miss rate for overall accesses
system.l2.demand_avg_mshr_miss_latency::.cpu.inst 74662.042875                       # average overall mshr miss latency
system.l2.demand_avg_mshr_miss_latency::.cpu.data 75082.135076                       # average overall mshr miss latency
system.l2.demand_avg_mshr_miss_latency::total 74974.255181                       # average overall mshr miss latency
system.l2.overall_avg_mshr_miss_latency::.cpu.inst 74662.042875                       # average overall mshr miss latency
system.l2.overall_avg_mshr_miss_latency::.cpu.data 75082.135076                       # average overall mshr miss latency
system.l2.overall_avg_mshr_miss_latency::total 74974.255181                       # average overall mshr miss latency
system.l2.replacements                              0                       # number of replacements
system.l2.WritebackDirty_hits::.writebacks        38838                       # number of WritebackDirty hits
system.l2.WritebackDirty_hits::total            38838                       # number of WritebackDirty hits
system.l2.WritebackDirty_accesses::.writebacks        38838                       # number of WritebackDirty accesses(hits+misses)
system.l2.WritebackDirty_accesses::total        38838                       # number of WritebackDirty accesses(hits+misses)
system.l2.WritebackClean_hits::.writebacks         3075                       # number of WritebackClean hits
system.l2.WritebackClean_hits::total             3075                       # number of WritebackClean hits
system.l2.WritebackClean_accesses::.writebacks         3075                       # number of WritebackClean accesses(hits+misses)
system.l2.WritebackClean_accesses::total         3075                       # number of WritebackClean accesses(hits+misses)
system.l2.ReadExReq_hits::.cpu.data             26261                       # number of ReadExReq hits
system.l2.ReadExReq_hits::total                 26261                       # number of ReadExReq hits
system.l2.ReadExReq_misses::.cpu.data            1852                       # number of ReadExReq misses
system.l2.ReadExReq_misses::total                1852                       # number of ReadExReq misses
system.l2.ReadExReq_miss_latency::.cpu.data    155381000                       # number of ReadExReq miss cycles
system.l2.ReadExReq_miss_latency::total     155381000                       # number of ReadExReq miss cycles
system.l2.ReadExReq_accesses::.cpu.data         28113                       # number of ReadExReq accesses(hits+misses)
system.l2.ReadExReq_accesses::total             28113                       # number of ReadExReq accesses(hits+misses)
system.l2.ReadExReq_miss_rate::.cpu.data     0.065877                       # miss rate for ReadExReq accesses
system.l2.ReadExReq_miss_rate::total         0.065877                       # miss rate for ReadExReq accesses
system.l2.ReadExReq_avg_miss_latency::.cpu.data 83899.028078                       # average ReadExReq miss latency
system.l2.ReadExReq_avg_miss_latency::total 83899.028078                       # average ReadExReq miss latency
system.l2.ReadExReq_mshr_misses::.cpu.data         1852                       # number of ReadExReq MSHR misses
system.l2.ReadExReq_mshr_misses::total           1852                       # number of ReadExReq MSHR misses
system.l2.ReadExReq_mshr_miss_latency::.cpu.data    136861000                       # number of ReadExReq MSHR miss cycles
system.l2.ReadExReq_mshr_miss_latency::total    136861000                       # number of ReadExReq MSHR miss cycles
system.l2.ReadExReq_mshr_miss_rate::.cpu.data     0.065877                       # mshr miss rate for ReadExReq accesses
system.l2.ReadExReq_mshr_miss_rate::total     0.065877                       # mshr miss rate for ReadExReq accesses
system.l2.ReadExReq_avg_mshr_miss_latency::.cpu.data 73899.028078                       # average ReadExReq mshr miss latency
system.l2.ReadExReq_avg_mshr_miss_latency::total 73899.028078                       # average ReadExReq mshr miss latency
system.l2.ReadCleanReq_hits::.cpu.inst           3190                       # number of ReadCleanReq hits
system.l2.ReadCleanReq_hits::total               3190                       # number of ReadCleanReq hits
system.l2.ReadCleanReq_misses::.cpu.inst          796                       # number of ReadCleanReq misses
system.l2.ReadCleanReq_misses::total              796                       # number of ReadCleanReq misses
system.l2.ReadCleanReq_miss_latency::.cpu.inst     67353500                       # number of ReadCleanReq miss cycles
system.l2.ReadCleanReq_miss_latency::total     67353500                       # number of ReadCleanReq miss cycles
system.l2.ReadCleanReq_accesses::.cpu.inst         3986                       # number of ReadCleanReq accesses(hits+misses)
system.l2.ReadCleanReq_accesses::total           3986                       # number of ReadCleanReq accesses(hits+misses)
system.l2.ReadCleanReq_miss_rate::.cpu.inst     0.199699                       # miss rate for ReadCleanReq accesses
system.l2.ReadCleanReq_miss_rate::total      0.199699                       # miss rate for ReadCleanReq accesses
system.l2.ReadCleanReq_avg_miss_latency::.cpu.inst 84614.949749                       # average ReadCleanReq miss latency
system.l2.ReadCleanReq_avg_miss_latency::total 84614.949749                       # average ReadCleanReq miss latency
system.l2.ReadCleanReq_mshr_hits::.cpu.inst            3                       # number of ReadCleanReq MSHR hits
system.l2.ReadCleanReq_mshr_hits::total             3                       # number of ReadCleanReq MSHR hits
system.l2.ReadCleanReq_mshr_misses::.cpu.inst          793                       # number of ReadCleanReq MSHR misses
system.l2.ReadCleanReq_mshr_misses::total          793                       # number of ReadCleanReq MSHR misses
system.l2.ReadCleanReq_mshr_miss_latency::.cpu.inst     59207000                       # number of ReadCleanReq MSHR miss cycles
system.l2.ReadCleanReq_mshr_miss_latency::total     59207000                       # number of ReadCleanReq MSHR miss cycles
system.l2.ReadCleanReq_mshr_miss_rate::.cpu.inst     0.198946                       # mshr miss rate for ReadCleanReq accesses
system.l2.ReadCleanReq_mshr_miss_rate::total     0.198946                       # mshr miss rate for ReadCleanReq accesses
system.l2.ReadCleanReq_avg_mshr_miss_latency::.cpu.inst 74662.042875                       # average ReadCleanReq mshr miss latency
system.l2.ReadCleanReq_avg_mshr_miss_latency::total 74662.042875                       # average ReadCleanReq mshr miss latency
system.l2.ReadSharedReq_hits::.cpu.data         12377                       # number of ReadSharedReq hits
system.l2.ReadSharedReq_hits::total             12377                       # number of ReadSharedReq hits
system.l2.ReadSharedReq_misses::.cpu.data          453                       # number of ReadSharedReq misses
system.l2.ReadSharedReq_misses::total             453                       # number of ReadSharedReq misses
system.l2.ReadSharedReq_miss_latency::.cpu.data     40593000                       # number of ReadSharedReq miss cycles
system.l2.ReadSharedReq_miss_latency::total     40593000                       # number of ReadSharedReq miss cycles
system.l2.ReadSharedReq_accesses::.cpu.data        12830                       # number of ReadSharedReq accesses(hits+misses)
system.l2.ReadSharedReq_accesses::total         12830                       # number of ReadSharedReq accesses(hits+misses)
system.l2.ReadSharedReq_miss_rate::.cpu.data     0.035308                       # miss rate for ReadSharedReq accesses
system.l2.ReadSharedReq_miss_rate::total     0.035308                       # miss rate for ReadSharedReq accesses
system.l2.ReadSharedReq_avg_miss_latency::.cpu.data 89609.271523                       # average ReadSharedReq miss latency
system.l2.ReadSharedReq_avg_miss_latency::total 89609.271523                       # average ReadSharedReq miss latency
system.l2.ReadSharedReq_mshr_hits::.cpu.data           10                       # number of ReadSharedReq MSHR hits
system.l2.ReadSharedReq_mshr_hits::total           10                       # number of ReadSharedReq MSHR hits
system.l2.ReadSharedReq_mshr_misses::.cpu.data          443                       # number of ReadSharedReq MSHR misses
system.l2.ReadSharedReq_mshr_misses::total          443                       # number of ReadSharedReq MSHR misses
system.l2.ReadSharedReq_mshr_miss_latency::.cpu.data     35452500                       # number of ReadSharedReq MSHR miss cycles
system.l2.ReadSharedReq_mshr_miss_latency::total     35452500                       # number of ReadSharedReq MSHR miss cycles
system.l2.ReadSharedReq_mshr_miss_rate::.cpu.data     0.034528                       # mshr miss rate for ReadSharedReq accesses
system.l2.ReadSharedReq_mshr_miss_rate::total     0.034528                       # mshr miss rate for ReadSharedReq accesses
system.l2.ReadSharedReq_avg_mshr_miss_latency::.cpu.data 80028.216704                       # average ReadSharedReq mshr miss latency
system.l2.ReadSharedReq_avg_mshr_miss_latency::total 80028.216704                       # average ReadSharedReq mshr miss latency
system.l2.power_state.pwrStateResidencyTicks::UNDEFINED  59269229500                       # Cumulative time (in ticks) in various power states
system.l2.tags.tagsinuse                  2983.998678                       # Cycle average of tags in use
system.l2.tags.total_refs                       87753                       # Total number of references to valid blocks.
system.l2.tags.sampled_refs                      3088                       # Sample count of references to valid blocks.
system.l2.tags.avg_refs                     28.417422                       # Average number of references to valid blocks.
system.l2.tags.warmup_cycle                     82000                       # Cycle when the warmup percentage was hit.
system.l2.tags.occ_blocks::.cpu.inst       789.806329                       # Average occupied blocks per requestor
system.l2.tags.occ_blocks::.cpu.data      2194.192350                       # Average occupied blocks per requestor
system.l2.tags.occ_percent::.cpu.inst        0.048206                       # Average percentage of cache occupancy
system.l2.tags.occ_percent::.cpu.data        0.133923                       # Average percentage of cache occupancy
system.l2.tags.occ_percent::total            0.182129                       # Average percentage of cache occupancy
system.l2.tags.occ_task_id_blocks::1024          3088                       # Occupied blocks per task id
system.l2.tags.age_task_id_blocks_1024::4         3088                       # Occupied blocks per task id
system.l2.tags.occ_task_id_percent::1024     0.188477                       # Percentage of cache occupancy per task id
system.l2.tags.tag_accesses                    705216                       # Number of tag accesses
system.l2.tags.data_accesses                   705216                       # Number of data accesses
system.l2.tags.power_state.pwrStateResidencyTicks::UNDEFINED  59269229500                       # Cumulative time (in ticks) in various power states
system.mem_ctrls.avgPriority_.cpu.inst::samples      1586.00                       # Average QoS priority value for accepted requests
system.mem_ctrls.avgPriority_.cpu.data::samples      4590.00                       # Average QoS priority value for accepted requests
system.mem_ctrls.priorityMinLatency      0.000000018750                       # per QoS priority minimum request to response latency (s)
system.mem_ctrls.priorityMaxLatency      0.000000582500                       # per QoS priority maximum request to response latency (s)
system.mem_ctrls.numReadWriteTurnArounds            0                       # Number of turnarounds from READ to WRITE
system.mem_ctrls.numWriteReadTurnArounds            0                       # Number of turnarounds from WRITE to READ
system.mem_ctrls.numStayReadState               24473                       # Number of times bus staying in READ state
system.mem_ctrls.numStayWriteState                  0                       # Number of times bus staying in WRITE state
system.mem_ctrls.readReqs                        3088                       # Number of read requests accepted
system.mem_ctrls.writeReqs                          0                       # Number of write requests accepted
system.mem_ctrls.readBursts                      6176                       # Number of controller read bursts, including those serviced by the write queue
system.mem_ctrls.writeBursts                        0                       # Number of controller write bursts, including those merged in the write queue
system.mem_ctrls.servicedByWrQ                      0                       # Number of controller read bursts serviced by the write queue
system.mem_ctrls.mergedWrBursts                     0                       # Number of controller write bursts merged with an existing one
system.mem_ctrls.neitherReadNorWriteReqs            0                       # Number of requests that are neither read nor write
system.mem_ctrls.avgRdQLen                       2.01                       # Average read queue length when enqueuing
system.mem_ctrls.avgWrQLen                       0.00                       # Average write queue length when enqueuing
system.mem_ctrls.numRdRetry                         0                       # Number of times read queue was full causing retry
system.mem_ctrls.numWrRetry                         0                       # Number of times write queue was full causing retry
system.mem_ctrls.readPktSize::0                     0                       # Read request sizes (log2)
system.mem_ctrls.readPktSize::1                     0                       # Read request sizes (log2)
system.mem_ctrls.readPktSize::2                     0                       # Read request sizes (log2)
system.mem_ctrls.readPktSize::3                     0                       # Read request sizes (log2)
system.mem_ctrls.readPktSize::4                     0                       # Read request sizes (log2)
system.mem_ctrls.readPktSize::5                     0                       # Read request sizes (log2)
system.mem_ctrls.readPktSize::6                  6176                       # Read request sizes (log2)
system.mem_ctrls.readPktSize::7                     0                       # Read request sizes (log2)
system.mem_ctrls.writePktSize::0                    0                       # Write request sizes (log2)
system.mem_ctrls.writePktSize::1                    0                       # Write request sizes (log2)
system.mem_ctrls.writePktSize::2                    0                       # Write request sizes (log2)
system.mem_ctrls.writePktSize::3                    0                       # Write request sizes (log2)
system.mem_ctrls.writePktSize::4                    0                       # Write request sizes (log2)
system.mem_ctrls.writePktSize::5                    0                       # Write request sizes (log2)
system.mem_ctrls.writePktSize::6                    0                       # Write request sizes (log2)
system.mem_ctrls.writePktSize::7                    0                       # Write request sizes (log2)
system.mem_ctrls.rdQLenPdf::0                    2858                       # What read queue length does an incoming req see
system.mem_ctrls.rdQLenPdf::1                    2864                       # What read queue length does an incoming req see
system.mem_ctrls.rdQLenPdf::2                     221                       # What read queue length does an incoming req see
system.mem_ctrls.rdQLenPdf::3                     217                       # What read queue length does an incoming req see
system.mem_ctrls.rdQLenPdf::4                       9                       # What read queue length does an incoming req see
system.mem_ctrls.rdQLenPdf::5                       7                       # What read queue length does an incoming req see
system.mem_ctrls.rdQLenPdf::6                       0                       # What read queue length does an incoming req see
system.mem_ctrls.rdQLenPdf::7                       0                       # What read queue length does an incoming req see
system.mem_ctrls.rdQLenPdf::8                       0                       # What read queue length does an incoming req see
system.mem_ctrls.rdQLenPdf::9                       0                       # What read queue length does an incoming req see
system.mem_ctrls.rdQLenPdf::10                      0                       # What read queue length does an incoming req see
system.mem_ctrls.rdQLenPdf::11                      0                       # What read queue length does an incoming req see
[...]
system.mem_ctrls.dram.bw_read::.cpu.inst      1712592                       # Total read bandwidth from this memory (bytes/s)
system.mem_ctrls.dram.bw_read::.cpu.data      4956366                       # Total read bandwidth from this memory (bytes/s)
system.mem_ctrls.dram.bw_read::total          6668958                       # Total read bandwidth from this memory (bytes/s)
system.mem_ctrls.dram.bw_inst_read::.cpu.inst      1712592                       # Instruction read bandwidth from this memory (bytes/s)
system.mem_ctrls.dram.bw_inst_read::total      1712592                       # Instruction read bandwidth from this memory (bytes/s)
system.mem_ctrls.dram.bw_total::.cpu.inst      1712592                       # Total bandwidth to/from this memory (bytes/s)
system.mem_ctrls.dram.bw_total::.cpu.data      4956366                       # Total bandwidth to/from this memory (bytes/s)
system.mem_ctrls.dram.bw_total::total         6668958                       # Total bandwidth to/from this memory (bytes/s)
system.mem_ctrls.dram.readBursts                 6176                       # Number of DRAM read bursts
system.mem_ctrls.dram.writeBursts                   0                       # Number of DRAM write bursts
system.mem_ctrls.dram.perBankRdBursts::0          336                       # Per bank write bursts
system.mem_ctrls.dram.perBankRdBursts::1          356                       # Per bank write bursts
system.mem_ctrls.dram.perBankRdBursts::2          358                       # Per bank write bursts
system.mem_ctrls.dram.perBankRdBursts::3          350                       # Per bank write bursts
system.mem_ctrls.dram.perBankRdBursts::4          332                       # Per bank write bursts
system.mem_ctrls.dram.perBankRdBursts::5          588                       # Per bank write bursts
system.mem_ctrls.dram.perBankRdBursts::6          382                       # Per bank write bursts
system.mem_ctrls.dram.perBankRdBursts::7          462                       # Per bank write bursts
system.mem_ctrls.dram.perBankRdBursts::8          306                       # Per bank write bursts
system.mem_ctrls.dram.perBankRdBursts::9          440                       # Per bank write bursts
system.mem_ctrls.dram.perBankRdBursts::10          424                       # Per bank write bursts
system.mem_ctrls.dram.perBankRdBursts::11          408                       # Per bank write bursts
system.mem_ctrls.dram.perBankRdBursts::12          446                       # Per bank write bursts
system.mem_ctrls.dram.perBankRdBursts::13          374                       # Per bank write bursts
system.mem_ctrls.dram.perBankRdBursts::14          324                       # Per bank write bursts
system.mem_ctrls.dram.perBankRdBursts::15          290                       # Per bank write bursts
system.mem_ctrls.dram.perBankWrBursts::0            0                       # Per bank write bursts
system.mem_ctrls.dram.perBankWrBursts::1            0                       # Per bank write bursts
system.mem_ctrls.dram.perBankWrBursts::2            0                       # Per bank write bursts
system.mem_ctrls.dram.perBankWrBursts::3            0                       # Per bank write bursts
system.mem_ctrls.dram.perBankWrBursts::4            0                       # Per bank write bursts
system.mem_ctrls.dram.perBankWrBursts::5            0                       # Per bank write bursts
system.mem_ctrls.dram.perBankWrBursts::6            0                       # Per bank write bursts
system.mem_ctrls.dram.perBankWrBursts::7            0                       # Per bank write bursts
system.mem_ctrls.dram.perBankWrBursts::8            0                       # Per bank write bursts
system.mem_ctrls.dram.perBankWrBursts::9            0                       # Per bank write bursts
system.mem_ctrls.dram.perBankWrBursts::10            0                       # Per bank write bursts
system.mem_ctrls.dram.perBankWrBursts::11            0                       # Per bank write bursts
system.mem_ctrls.dram.perBankWrBursts::12            0                       # Per bank write bursts
system.mem_ctrls.dram.perBankWrBursts::13            0                       # Per bank write bursts
system.mem_ctrls.dram.perBankWrBursts::14            0                       # Per bank write bursts
system.mem_ctrls.dram.perBankWrBursts::15            0                       # Per bank write bursts
system.mem_ctrls.dram.totQLat                78034000                       # Total ticks spent queuing
system.mem_ctrls.dram.totBusLat              30880000                       # Total ticks spent in databus transfers
system.mem_ctrls.dram.totMemAccLat          193834000                       # Total ticks spent from burst creation until serviced by the DRAM
system.mem_ctrls.dram.avgQLat                12635.04                       # Average queueing delay per DRAM burst
system.mem_ctrls.dram.avgBusLat               5000.00                       # Average bus latency per DRAM burst
system.mem_ctrls.dram.avgMemAccLat           31385.04                       # Average memory access latency per DRAM burst
system.mem_ctrls.dram.readRowHits                5153                       # Number of row buffer hits during reads
system.mem_ctrls.dram.writeRowHits                  0                       # Number of row buffer hits during writes
system.mem_ctrls.dram.readRowHitRate            83.44                       # Row buffer hit rate for reads
system.mem_ctrls.dram.writeRowHitRate             nan                       # Row buffer hit rate for writes
system.mem_ctrls.dram.bytesPerActivate::samples         1023                       # Bytes accessed per row activation
system.mem_ctrls.dram.bytesPerActivate::mean   386.377322                       # Bytes accessed per row activation
system.mem_ctrls.dram.bytesPerActivate::gmean   288.172538                       # Bytes accessed per row activation
system.mem_ctrls.dram.bytesPerActivate::stdev   313.039531                       # Bytes accessed per row activation
system.mem_ctrls.dram.bytesPerActivate::128-255          360     35.19%     35.19% # Bytes accessed per row activation
system.mem_ctrls.dram.bytesPerActivate::256-383          268     26.20%     61.39% # Bytes accessed per row activation
system.mem_ctrls.dram.bytesPerActivate::384-511          105     10.26%     71.65% # Bytes accessed per row activation
system.mem_ctrls.dram.bytesPerActivate::512-639           81      7.92%     79.57% # Bytes accessed per row activation
system.mem_ctrls.dram.bytesPerActivate::640-767           23      2.25%     81.82% # Bytes accessed per row activation
system.mem_ctrls.dram.bytesPerActivate::768-895           16      1.56%     83.38% # Bytes accessed per row activation
system.mem_ctrls.dram.bytesPerActivate::896-1023           18      1.76%     85.14% # Bytes accessed per row activation
system.mem_ctrls.dram.bytesPerActivate::1024-1151          152     14.86%    100.00% # Bytes accessed per row activation
system.mem_ctrls.dram.bytesPerActivate::total         1023                       # Bytes accessed per row activation
system.mem_ctrls.dram.bytesRead                395264                       # Total number of bytes read from DRAM
system.mem_ctrls.dram.bytesWritten                  0                       # Total number of bytes written to DRAM
system.mem_ctrls.dram.avgRdBW                6.668958                       # Average DRAM read bandwidth in MiBytes/s
system.mem_ctrls.dram.avgWrBW                       0                       # Average DRAM write bandwidth in MiBytes/s
system.mem_ctrls.dram.peakBW                 12800.00                       # Theoretical peak bandwidth in MiByte/s
system.mem_ctrls.dram.busUtil                    0.05                       # Data bus utilization in percentage
system.mem_ctrls.dram.busUtilRead                0.05                       # Data bus utilization in percentage for reads
system.mem_ctrls.dram.busUtilWrite               0.00                       # Data bus utilization in percentage for writes
system.mem_ctrls.dram.pageHitRate               83.44                       # Row buffer hit rate, read and write combined
system.mem_ctrls.dram.power_state.pwrStateResidencyTicks::UNDEFINED  59269229500                       # Cumulative time (in ticks) in various power states
system.mem_ctrls.dram.rank0.actEnergy         3662820                       # Energy for activate commands per rank (pJ)
system.mem_ctrls.dram.rank0.preEnergy         1946835                       # Energy for precharge commands per rank (pJ)
system.mem_ctrls.dram.rank0.readEnergy       22590960                       # Energy for read commands per rank (pJ)
system.mem_ctrls.dram.rank0.writeEnergy             0                       # Energy for write commands per rank (pJ)
system.mem_ctrls.dram.rank0.refreshEnergy 4678639680.000001                       # Energy for refresh commands per rank (pJ)
system.mem_ctrls.dram.rank0.actBackEnergy   1370722890                       # Energy for active background per rank (pJ)
system.mem_ctrls.dram.rank0.preBackEnergy  21605091360                       # Energy for precharge background per rank (pJ)
system.mem_ctrls.dram.rank0.actPowerDownEnergy            0                       # Energy for active power-down per rank (pJ)
system.mem_ctrls.dram.rank0.prePowerDownEnergy            0                       # Energy for precharge power-down per rank (pJ)
system.mem_ctrls.dram.rank0.selfRefreshEnergy            0                       # Energy for self refresh per rank (pJ)
system.mem_ctrls.dram.rank0.totalEnergy   27682654545                       # Total energy per rank (pJ)
system.mem_ctrls.dram.rank0.averagePower   467.066213                       # Core power per rank (mW)
system.mem_ctrls.dram.rank0.totalIdleTime            0                       # Total Idle time Per DRAM Rank
system.mem_ctrls.dram.rank0.pwrStateTime::IDLE  56154915500                       # Time in different power states
system.mem_ctrls.dram.rank0.pwrStateTime::REF   1979120000                       # Time in different power states
system.mem_ctrls.dram.rank0.pwrStateTime::SREF            0                       # Time in different power states
system.mem_ctrls.dram.rank0.pwrStateTime::PRE_PDN            0                       # Time in different power states
system.mem_ctrls.dram.rank0.pwrStateTime::ACT   1135194000                       # Time in different power states
system.mem_ctrls.dram.rank0.pwrStateTime::ACT_PDN            0                       # Time in different power states
system.mem_ctrls.dram.rank1.actEnergy         3641400                       # Energy for activate commands per rank (pJ)
system.mem_ctrls.dram.rank1.preEnergy         1935450                       # Energy for precharge commands per rank (pJ)
system.mem_ctrls.dram.rank1.readEnergy       21505680                       # Energy for read commands per rank (pJ)
system.mem_ctrls.dram.rank1.writeEnergy             0                       # Energy for write commands per rank (pJ)
system.mem_ctrls.dram.rank1.refreshEnergy 4678639680.000001                       # Energy for refresh commands per rank (pJ)
system.mem_ctrls.dram.rank1.actBackEnergy   1421394180                       # Energy for active background per rank (pJ)
system.mem_ctrls.dram.rank1.preBackEnergy  21562420800                       # Energy for precharge background per rank (pJ)
system.mem_ctrls.dram.rank1.actPowerDownEnergy            0                       # Energy for active power-down per rank (pJ)
system.mem_ctrls.dram.rank1.prePowerDownEnergy            0                       # Energy for precharge power-down per rank (pJ)
system.mem_ctrls.dram.rank1.selfRefreshEnergy            0                       # Energy for self refresh per rank (pJ)
system.mem_ctrls.dram.rank1.totalEnergy   27689537190                       # Total energy per rank (pJ)
system.mem_ctrls.dram.rank1.averagePower   467.182338                       # Core power per rank (mW)
system.mem_ctrls.dram.rank1.totalIdleTime            0                       # Total Idle time Per DRAM Rank
system.mem_ctrls.dram.rank1.pwrStateTime::IDLE  56043754000                       # Time in different power states
system.mem_ctrls.dram.rank1.pwrStateTime::REF   1979120000                       # Time in different power states
system.mem_ctrls.dram.rank1.pwrStateTime::SREF            0                       # Time in different power states
system.mem_ctrls.dram.rank1.pwrStateTime::PRE_PDN            0                       # Time in different power states
system.mem_ctrls.dram.rank1.pwrStateTime::ACT   1246355500                       # Time in different power states
system.mem_ctrls.dram.rank1.pwrStateTime::ACT_PDN            0                       # Time in different power states
system.mem_ctrls.power_state.pwrStateResidencyTicks::UNDEFINED  59269229500                       # Cumulative time (in ticks) in various power states
system.membus.trans_dist::ReadResp               1236                       # Transaction distribution
system.membus.trans_dist::ReadExReq              1852                       # Transaction distribution
system.membus.trans_dist::ReadExResp             1852                       # Transaction distribution
system.membus.trans_dist::ReadSharedReq          1236                       # Transaction distribution
system.membus.pkt_count_system.l2.mem_side_port::system.mem_ctrls.port         6176                       # Packet count per connected requestor and responder (bytes)
system.membus.pkt_count::total                   6176                       # Packet count per connected requestor and responder (bytes)
system.membus.pkt_size_system.l2.mem_side_port::system.mem_ctrls.port       395264                       # Cumulative packet size per connected requestor and responder (bytes)
system.membus.pkt_size::total                  395264                       # Cumulative packet size per connected requestor and responder (bytes)
system.membus.snoops                                0                       # Total snoops (count)
system.membus.snoopTraffic                          0                       # Total snoop traffic (bytes)
system.membus.snoop_fanout::samples              3088                       # Request fanout histogram
system.membus.snoop_fanout::mean                    0                       # Request fanout histogram
system.membus.snoop_fanout::stdev                   0                       # Request fanout histogram
system.membus.snoop_fanout::underflows              0      0.00%      0.00% # Request fanout histogram
system.membus.snoop_fanout::0                    3088    100.00%    100.00% # Request fanout histogram
system.membus.snoop_fanout::1                       0      0.00%    100.00% # Request fanout histogram
system.membus.snoop_fanout::overflows               0      0.00%    100.00% # Request fanout histogram
system.membus.snoop_fanout::min_value               0                       # Request fanout histogram
system.membus.snoop_fanout::max_value               0                       # Request fanout histogram
system.membus.snoop_fanout::total                3088                       # Request fanout histogram
system.membus.power_state.pwrStateResidencyTicks::UNDEFINED  59269229500                       # Cumulative time (in ticks) in various power states
system.membus.reqLayer0.occupancy             3787500                       # Layer occupancy (ticks)
system.membus.reqLayer0.utilization               0.0                       # Layer utilization (%)
system.membus.respLayer1.occupancy           28858250                       # Layer occupancy (ticks)
system.membus.respLayer1.utilization              0.0                       # Layer utilization (%)
system.tol2bus.trans_dist::ReadResp             16816                       # Transaction distribution
system.tol2bus.trans_dist::WritebackDirty        38838                       # Transaction distribution
system.tol2bus.trans_dist::WritebackClean         3730                       # Transaction distribution
system.tol2bus.trans_dist::CleanEvict            1593                       # Transaction distribution
system.tol2bus.trans_dist::ReadExReq            28113                       # Transaction distribution
system.tol2bus.trans_dist::ReadExResp           28113                       # Transaction distribution
system.tol2bus.trans_dist::ReadCleanReq          3986                       # Transaction distribution
system.tol2bus.trans_dist::ReadSharedReq        12830                       # Transaction distribution
system.tol2bus.pkt_count_system.cpu.icache.mem_side_port::system.l2.cpu_side_port        11702                       # Packet count per connected requestor and responder (bytes)
system.tol2bus.pkt_count_system.cpu.dcache.mem_side_port::system.l2.cpu_side_port       122317                       # Packet count per connected requestor and responder (bytes)
system.tol2bus.pkt_count::total                134019                       # Packet count per connected requestor and responder (bytes)
system.tol2bus.pkt_size_system.cpu.icache.mem_side_port::system.l2.cpu_side_port       987648                       # Cumulative packet size per connected requestor and responder (bytes)
system.tol2bus.pkt_size_system.cpu.dcache.mem_side_port::system.l2.cpu_side_port     10211968                       # Cumulative packet size per connected requestor and responder (bytes)
system.tol2bus.pkt_size::total               11199616                       # Cumulative packet size per connected requestor and responder (bytes)
system.tol2bus.snoops                               0                       # Total snoops (count)
system.tol2bus.snoopTraffic                         0                       # Total snoop traffic (bytes)
system.tol2bus.snoop_fanout::samples            44929                       # Request fanout histogram
system.tol2bus.snoop_fanout::mean            0.029758                       # Request fanout histogram
system.tol2bus.snoop_fanout::stdev           0.169921                       # Request fanout histogram
system.tol2bus.snoop_fanout::underflows             0      0.00%      0.00% # Request fanout histogram
system.tol2bus.snoop_fanout::0                  43592     97.02%     97.02% # Request fanout histogram
system.tol2bus.snoop_fanout::1                   1337      2.98%    100.00% # Request fanout histogram
system.tol2bus.snoop_fanout::2                      0      0.00%    100.00% # Request fanout histogram
system.tol2bus.snoop_fanout::overflows              0      0.00%    100.00% # Request fanout histogram
system.tol2bus.snoop_fanout::min_value              0                       # Request fanout histogram
system.tol2bus.snoop_fanout::max_value              1                       # Request fanout histogram
system.tol2bus.snoop_fanout::total              44929                       # Request fanout histogram
system.tol2bus.power_state.pwrStateResidencyTicks::UNDEFINED  59269229500                       # Cumulative time (in ticks) in various power states
system.tol2bus.reqLayer0.occupancy          129681000                       # Layer occupancy (ticks)
system.tol2bus.reqLayer0.utilization              0.2                       # Layer utilization (%)
system.tol2bus.respLayer0.occupancy           9966497                       # Layer occupancy (ticks)
system.tol2bus.respLayer0.utilization             0.0                       # Layer utilization (%)
system.tol2bus.respLayer1.occupancy         102362490                       # Layer occupancy (ticks)
system.tol2bus.respLayer1.utilization             0.2                       # Layer utilization (%)
system.voltage_domain.voltage                       1                       # Voltage in Volts

---------- End Simulation Statistics   ----------
