
---------- Begin Simulation Statistics ----------
final_tick                               280324829500                       # Number of ticks from beginning of simulation (restored from checkpoints and never reset)
host_inst_rate                                 249700                       # Simulator instruction rate (inst/s)
host_mem_usage                                 734448                       # Number of bytes of host memory used
host_op_rate                                   249709                       # Simulator op (including micro ops) rate (op/s)
host_seconds                                   400.48                       # Real time elapsed on the host
host_tick_rate                              699972120                       # Simulator tick rate (ticks/s)
sim_freq                                 1000000000000                       # Frequency of simulated ticks
sim_insts                                   100000001                       # Number of instructions simulated
sim_ops                                     100003447                       # Number of ops (including micro ops) simulated
sim_seconds                                  0.280325                       # Number of seconds simulated
sim_ticks                                280324829500                       # Number of ticks simulated
system.cpu.committedInsts                   100000001                       # Number of instructions committed
system.cpu.committedOps                     100003447                       # Number of ops (including micro ops) committed
system.cpu.cpi                               5.606497                       # CPI: cycles per instruction
system.cpu.discardedOps                         20991                       # Number of ops (including micro ops) which were discarded before commit
system.cpu.idleCycles                       438876334                       # Total number of cycles that the object has spent stopped
system.cpu.ipc                               0.178365                       # IPC: instructions per cycle
system.cpu.numCycles                        560649659                       # number of cpu cycles simulated
system.cpu.numFetchSuspends                         0                       # Number of times Execute suspended instruction fetching
system.cpu.numWorkItemsCompleted                    0                       # number of work items this cpu completed
system.cpu.numWorkItemsStarted                      0                       # number of work items this cpu started
system.cpu.op_class_0::No_OpClass                   0      0.00%      0.00% # Class of committed instruction
system.cpu.op_class_0::IntAlu                49995247     49.99%     49.99% # Class of committed instruction
system.cpu.op_class_0::IntMult                     85      0.00%     49.99% # Class of committed instruction
system.cpu.op_class_0::IntDiv                       0      0.00%     49.99% # Class of committed instruction
system.cpu.op_class_0::FloatAdd                     0      0.00%     49.99% # Class of committed instruction
system.cpu.op_class_0::FloatCmp                     0      0.00%     49.99% # Class of committed instruction
system.cpu.op_class_0::FloatCvt                     0      0.00%     49.99% # Class of committed instruction
system.cpu.op_class_0::FloatMult                    0      0.00%     49.99% # Class of committed instruction
system.cpu.op_class_0::FloatMultAcc                 0      0.00%     49.99% # Class of committed instruction
system.cpu.op_class_0::FloatDiv                     0      0.00%     49.99% # Class of committed instruction
system.cpu.op_class_0::FloatMisc                    0      0.00%     49.99% # Class of committed instruction
system.cpu.op_class_0::FloatSqrt                    0      0.00%     49.99% # Class of committed instruction
system.cpu.op_class_0::SimdAdd                      0      0.00%     49.99% # Class of committed instruction
system.cpu.op_class_0::SimdAddAcc                   0      0.00%     49.99% # Class of committed instruction
system.cpu.op_class_0::SimdAlu                      0      0.00%     49.99% # Class of committed instruction
system.cpu.op_class_0::SimdCmp                      0      0.00%     49.99% # Class of committed instruction
system.cpu.op_class_0::SimdCvt                      0      0.00%     49.99% # Class of committed instruction
system.cpu.op_class_0::SimdMisc                     0      0.00%     49.99% # Class of committed instruction
system.cpu.op_class_0::SimdMult                     0      0.00%     49.99% # Class of committed instruction
system.cpu.op_class_0::SimdMultAcc                  0      0.00%     49.99% # Class of committed instruction
system.cpu.op_class_0::SimdShift                    0      0.00%     49.99% # Class of committed instruction
system.cpu.op_class_0::SimdShiftAcc                 0      0.00%     49.99% # Class of committed instruction
system.cpu.op_class_0::SimdDiv                      0      0.00%     49.99% # Class of committed instruction
system.cpu.op_class_0::SimdSqrt                     0      0.00%     49.99% # Class of committed instruction
system.cpu.op_class_0::SimdFloatAdd                 0      0.00%     49.99% # Class of committed instruction
system.cpu.op_class_0::SimdFloatAlu                 0      0.00%     49.99% # Class of committed instruction
system.cpu.op_class_0::SimdFloatCmp                 2      0.00%     49.99% # Class of committed instruction
system.cpu.op_class_0::SimdFloatCvt                 0      0.00%     49.99% # Class of committed instruction
system.cpu.op_class_0::SimdFloatDiv                 0      0.00%     49.99% # Class of committed instruction
system.cpu.op_class_0::SimdFloatMisc                5      0.00%     49.99% # Class of committed instruction
system.cpu.op_class_0::SimdFloatMult                0      0.00%     49.99% # Class of committed instruction
system.cpu.op_class_0::SimdFloatMultAcc             0      0.00%     49.99% # Class of committed instruction
system.cpu.op_class_0::SimdFloatSqrt                0      0.00%     49.99% # Class of committed instruction
system.cpu.op_class_0::SimdReduceAdd                0      0.00%     49.99% # Class of committed instruction
system.cpu.op_class_0::SimdReduceAlu                0      0.00%     49.99% # Class of committed instruction
system.cpu.op_class_0::SimdReduceCmp                0      0.00%     49.99% # Class of committed instruction
system.cpu.op_class_0::SimdFloatReduceAdd            0      0.00%     49.99% # Class of committed instruction
system.cpu.op_class_0::SimdFloatReduceCmp            0      0.00%     49.99% # Class of committed instruction
system.cpu.op_class_0::SimdAes                      0      0.00%     49.99% # Class of committed instruction
system.cpu.op_class_0::SimdAesMix                   0      0.00%     49.99% # Class of committed instruction
system.cpu.op_class_0::SimdSha1Hash                 0      0.00%     49.99% # Class of committed instruction
system.cpu.op_class_0::SimdSha1Hash2                0      0.00%     49.99% # Class of committed instruction
system.cpu.op_class_0::SimdSha256Hash               0      0.00%     49.99% # Class of committed instruction
system.cpu.op_class_0::SimdSha256Hash2              0      0.00%     49.99% # Class of committed instruction
system.cpu.op_class_0::SimdShaSigma2                0      0.00%     49.99% # Class of committed instruction
system.cpu.op_class_0::SimdShaSigma3                0      0.00%     49.99% # Class of committed instruction
system.cpu.op_class_0::SimdPredAlu                  0      0.00%     49.99% # Class of committed instruction
system.cpu.op_class_0::MemRead               36892277     36.89%     86.88% # Class of committed instruction
system.cpu.op_class_0::MemWrite              13115831     13.12%    100.00% # Class of committed instruction
system.cpu.op_class_0::FloatMemRead                 0      0.00%    100.00% # Class of committed instruction
system.cpu.op_class_0::FloatMemWrite                0      0.00%    100.00% # Class of committed instruction
system.cpu.op_class_0::IprAccess                    0      0.00%    100.00% # Class of committed instruction
system.cpu.op_class_0::InstPrefetch                 0      0.00%    100.00% # Class of committed instruction
system.cpu.op_class_0::total                100003447                       # Class of committed instruction
system.cpu.tickCycles                       121773325                       # Number of cycles that the object actually ticked
system.cpu.workload.numSyscalls                    19                       # Number of system calls
system.membus.snoop_filter.hit_multi_requests            0                       # Number of requests hitting in the snoop filter with multiple (>1) holders of the requested data.
system.membus.snoop_filter.hit_multi_snoops            0                       # Number of snoops hitting in the snoop filter with multiple (>1) holders of the requested data.
system.membus.snoop_filter.hit_single_requests      2909795                       # Number of requests hitting in the snoop filter with a single holder of the requested data.
system.membus.snoop_filter.hit_single_snoops            0                       # Number of snoops hitting in the snoop filter with a single holder of the requested data.
system.membus.snoop_filter.tot_requests       5885700                       # Total number of requests made to the snoop filter.
system.membus.snoop_filter.tot_snoops               0                       # Total number of snoops made to the snoop filter.
system.tol2bus.snoop_filter.hit_multi_requests           25                       # Number of requests hitting in the snoop filter with multiple (>1) holders of the requested data.
system.tol2bus.snoop_filter.hit_multi_snoops            1                       # Number of snoops hitting in the snoop filter with multiple (>1) holders of the requested data.
system.tol2bus.snoop_filter.hit_single_requests      2973379                       # Number of requests hitting in the snoop filter with a single holder of the requested data.
system.tol2bus.snoop_filter.hit_single_snoops          573                       # Number of snoops hitting in the snoop filter with a single holder of the requested data.
system.tol2bus.snoop_filter.tot_requests      5949376                       # Total number of requests made to the snoop filter.
system.tol2bus.snoop_filter.tot_snoops            574                       # Total number of snoops made to the snoop filter.
system.clk_domain.clock                          1000                       # Clock period in ticks
system.cpu.branchPred.lookups                  606037                       # Number of BP lookups
system.cpu.branchPred.condPredicted            604148                       # Number of conditional branches predicted
system.cpu.branchPred.condIncorrect               814                       # Number of conditional branches incorrect
system.cpu.branchPred.BTBLookups               602096                       # Number of BTB lookups
system.cpu.branchPred.BTBHits                  601182                       # Number of BTB hits
system.cpu.branchPred.BTBHitPct             99.848197                       # BTB Hit Percentage
system.cpu.branchPred.RASUsed                     528                       # Number of times the RAS was used to get a target.
system.cpu.branchPred.RASIncorrect                  0                       # Number of incorrect RAS predictions.
system.cpu.branchPred.indirectLookups             344                       # Number of indirect predictor lookups.
system.cpu.branchPred.indirectHits                168                       # Number of indirect target hits.
system.cpu.branchPred.indirectMisses              176                       # Number of indirect misses.
system.cpu.branchPred.indirectMispredicted          103                       # Number of mispredicted indirect branches.
system.cpu.dcache.demand_hits::.cpu.data     42845074                       # number of demand (read+write) hits
system.cpu.dcache.demand_hits::total         42845074                       # number of demand (read+write) hits
system.cpu.dcache.overall_hits::.cpu.data     42845102                       # number of overall hits
system.cpu.dcache.overall_hits::total        42845102                       # number of overall hits
system.cpu.dcache.demand_misses::.cpu.data      5950059                       # number of demand (read+write) misses
system.cpu.dcache.demand_misses::total        5950059                       # number of demand (read+write) misses
system.cpu.dcache.overall_misses::.cpu.data      5950083                       # number of overall misses
system.cpu.dcache.overall_misses::total       5950083                       # number of overall misses
system.cpu.dcache.demand_miss_latency::.cpu.data 455008753000                       # number of demand (read+write) miss cycles
system.cpu.dcache.demand_miss_latency::total 455008753000                       # number of demand (read+write) miss cycles
system.cpu.dcache.overall_miss_latency::.cpu.data 455008753000                       # number of overall miss cycles
system.cpu.dcache.overall_miss_latency::total 455008753000                       # number of overall miss cycles
system.cpu.dcache.demand_accesses::.cpu.data     48795133                       # number of demand (read+write) accesses
system.cpu.dcache.demand_accesses::total     48795133                       # number of demand (read+write) accesses
system.cpu.dcache.overall_accesses::.cpu.data     48795185                       # number of overall (read+write) accesses
system.cpu.dcache.overall_accesses::total     48795185                       # number of overall (read+write) accesses
system.cpu.dcache.demand_miss_rate::.cpu.data     0.121940                       # miss rate for demand accesses
system.cpu.dcache.demand_miss_rate::total     0.121940                       # miss rate for demand accesses
system.cpu.dcache.overall_miss_rate::.cpu.data     0.121940                       # miss rate for overall accesses
system.cpu.dcache.overall_miss_rate::total     0.121940                       # miss rate for overall accesses
system.cpu.dcache.demand_avg_miss_latency::.cpu.data 76471.301041                       # average overall miss latency
system.cpu.dcache.demand_avg_miss_latency::total 76471.301041                       # average overall miss latency
system.cpu.dcache.overall_avg_miss_latency::.cpu.data 76470.992590                       # average overall miss latency
system.cpu.dcache.overall_avg_miss_latency::total 76470.992590                       # average overall miss latency
system.cpu.dcache.blocked_cycles::no_mshrs            0                       # number of cycles access was blocked
system.cpu.dcache.blocked_cycles::no_targets            0                       # number of cycles access was blocked
system.cpu.dcache.blocked::no_mshrs                 0                       # number of cycles access was blocked
system.cpu.dcache.blocked::no_targets               0                       # number of cycles access was blocked
system.cpu.dcache.avg_blocked_cycles::no_mshrs          nan                       # average number of cycles each access was blocked
system.cpu.dcache.avg_blocked_cycles::no_targets          nan                       # average number of cycles each access was blocked
system.cpu.dcache.writebacks::.writebacks      2972954                       # number of writebacks
system.cpu.dcache.writebacks::total           2972954                       # number of writebacks
system.cpu.dcache.demand_mshr_hits::.cpu.data      2974941                       # number of demand (read+write) MSHR hits
system.cpu.dcache.demand_mshr_hits::total      2974941                       # number of demand (read+write) MSHR hits
system.cpu.dcache.overall_mshr_hits::.cpu.data      2974941                       # number of overall MSHR hits
system.cpu.dcache.overall_mshr_hits::total      2974941                       # number of overall MSHR hits
system.cpu.dcache.demand_mshr_misses::.cpu.data      2975118                       # number of demand (read+write) MSHR misses
system.cpu.dcache.demand_mshr_misses::total      2975118                       # number of demand (read+write) MSHR misses
system.cpu.dcache.overall_mshr_misses::.cpu.data      2975142                       # number of overall MSHR misses
system.cpu.dcache.overall_mshr_misses::total      2975142                       # number of overall MSHR misses
system.cpu.dcache.demand_mshr_miss_latency::.cpu.data 233170216000                       # number of demand (read+write) MSHR miss cycles
system.cpu.dcache.demand_mshr_miss_latency::total 233170216000                       # number of demand (read+write) MSHR miss cycles
system.cpu.dcache.overall_mshr_miss_latency::.cpu.data 233172887500                       # number of overall MSHR miss cycles
system.cpu.dcache.overall_mshr_miss_latency::total 233172887500                       # number of overall MSHR miss cycles
system.cpu.dcache.demand_mshr_miss_rate::.cpu.data     0.060972                       # mshr miss rate for demand accesses
system.cpu.dcache.demand_mshr_miss_rate::total     0.060972                       # mshr miss rate for demand accesses
system.cpu.dcache.overall_mshr_miss_rate::.cpu.data     0.060972                       # mshr miss rate for overall accesses
system.cpu.dcache.overall_mshr_miss_rate::total     0.060972                       # mshr miss rate for overall accesses
system.cpu.dcache.demand_avg_mshr_miss_latency::.cpu.data 78373.434600                       # average overall mshr miss latency
system.cpu.dcache.demand_avg_mshr_miss_latency::total 78373.434600                       # average overall mshr miss latency
system.cpu.dcache.overall_avg_mshr_miss_latency::.cpu.data 78373.700314                       # average overall mshr miss latency
system.cpu.dcache.overall_avg_mshr_miss_latency::total 78373.700314                       # average overall mshr miss latency
system.cpu.dcache.replacements                2973095                       # number of replacements
system.cpu.dcache.ReadReq_hits::.cpu.data     35702474                       # number of ReadReq hits
system.cpu.dcache.ReadReq_hits::total        35702474                       # number of ReadReq hits
system.cpu.dcache.ReadReq_misses::.cpu.data          149                       # number of ReadReq misses
system.cpu.dcache.ReadReq_misses::total           149                       # number of ReadReq misses
system.cpu.dcache.ReadReq_miss_latency::.cpu.data     11312500                       # number of ReadReq miss cycles
system.cpu.dcache.ReadReq_miss_latency::total     11312500                       # number of ReadReq miss cycles
system.cpu.dcache.ReadReq_accesses::.cpu.data     35702623                       # number of ReadReq accesses(hits+misses)
system.cpu.dcache.ReadReq_accesses::total     35702623                       # number of ReadReq accesses(hits+misses)
system.cpu.dcache.ReadReq_miss_rate::.cpu.data     0.000004                       # miss rate for ReadReq accesses
system.cpu.dcache.ReadReq_miss_rate::total     0.000004                       # miss rate for ReadReq accesses
system.cpu.dcache.ReadReq_avg_miss_latency::.cpu.data 75922.818792                       # average ReadReq miss latency
system.cpu.dcache.ReadReq_avg_miss_latency::total 75922.818792                       # average ReadReq miss latency
system.cpu.dcache.ReadReq_mshr_hits::.cpu.data            6                       # number of ReadReq MSHR hits
system.cpu.dcache.ReadReq_mshr_hits::total            6                       # number of ReadReq MSHR hits
system.cpu.dcache.ReadReq_mshr_misses::.cpu.data          143                       # number of ReadReq MSHR misses
system.cpu.dcache.ReadReq_mshr_misses::total          143                       # number of ReadReq MSHR misses
system.cpu.dcache.ReadReq_mshr_miss_latency::.cpu.data     10445000                       # number of ReadReq MSHR miss cycles
system.cpu.dcache.ReadReq_mshr_miss_latency::total     10445000                       # number of ReadReq MSHR miss cycles
system.cpu.dcache.ReadReq_mshr_miss_rate::.cpu.data     0.000004                       # mshr miss rate for ReadReq accesses
system.cpu.dcache.ReadReq_mshr_miss_rate::total     0.000004                       # mshr miss rate for ReadReq accesses
system.cpu.dcache.ReadReq_avg_mshr_miss_latency::.cpu.data 73041.958042                       # average ReadReq mshr miss latency
system.cpu.dcache.ReadReq_avg_mshr_miss_latency::total 73041.958042                       # average ReadReq mshr miss latency
system.cpu.dcache.WriteReq_hits::.cpu.data      7142600                       # number of WriteReq hits
system.cpu.dcache.WriteReq_hits::total        7142600                       # number of WriteReq hits
system.cpu.dcache.WriteReq_misses::.cpu.data      5949910                       # number of WriteReq misses
system.cpu.dcache.WriteReq_misses::total      5949910                       # number of WriteReq misses
system.cpu.dcache.WriteReq_miss_latency::.cpu.data 454997440500                       # number of WriteReq miss cycles
system.cpu.dcache.WriteReq_miss_latency::total 454997440500                       # number of WriteReq miss cycles
system.cpu.dcache.WriteReq_accesses::.cpu.data     13092510                       # number of WriteReq accesses(hits+misses)
system.cpu.dcache.WriteReq_accesses::total     13092510                       # number of WriteReq accesses(hits+misses)
system.cpu.dcache.WriteReq_miss_rate::.cpu.data     0.454451                       # miss rate for WriteReq accesses
system.cpu.dcache.WriteReq_miss_rate::total     0.454451                       # miss rate for WriteReq accesses
system.cpu.dcache.WriteReq_avg_miss_latency::.cpu.data 76471.314776                       # average WriteReq miss latency
system.cpu.dcache.WriteReq_avg_miss_latency::total 76471.314776                       # average WriteReq miss latency
system.cpu.dcache.WriteReq_mshr_hits::.cpu.data      2974935                       # number of WriteReq MSHR hits
system.cpu.dcache.WriteReq_mshr_hits::total      2974935                       # number of WriteReq MSHR hits
system.cpu.dcache.WriteReq_mshr_misses::.cpu.data      2974975                       # number of WriteReq MSHR misses
system.cpu.dcache.WriteReq_mshr_misses::total      2974975                       # number of WriteReq MSHR misses
system.cpu.dcache.WriteReq_mshr_miss_latency::.cpu.data 233159771000                       # number of WriteReq MSHR miss cycles
system.cpu.dcache.WriteReq_mshr_miss_latency::total 233159771000                       # number of WriteReq MSHR miss cycles
system.cpu.dcache.WriteReq_mshr_miss_rate::.cpu.data     0.227227                       # mshr miss rate for WriteReq accesses
system.cpu.dcache.WriteReq_mshr_miss_rate::total     0.227227                       # mshr miss rate for WriteReq accesses
system.cpu.dcache.WriteReq_avg_mshr_miss_latency::.cpu.data 78373.690871                       # average WriteReq mshr miss latency
system.cpu.dcache.WriteReq_avg_mshr_miss_latency::total 78373.690871                       # average WriteReq mshr miss latency
system.cpu.dcache.SoftPFReq_hits::.cpu.data           28                       # number of SoftPFReq hits
system.cpu.dcache.SoftPFReq_hits::total            28                       # number of SoftPFReq hits
system.cpu.dcache.SoftPFReq_misses::.cpu.data           24                       # number of SoftPFReq misses
system.cpu.dcache.SoftPFReq_misses::total           24                       # number of SoftPFReq misses
system.cpu.dcache.SoftPFReq_accesses::.cpu.data           52                       # number of SoftPFReq accesses(hits+misses)
system.cpu.dcache.SoftPFReq_accesses::total           52                       # number of SoftPFReq accesses(hits+misses)
system.cpu.dcache.SoftPFReq_miss_rate::.cpu.data     0.461538                       # miss rate for SoftPFReq accesses
system.cpu.dcache.SoftPFReq_miss_rate::total     0.461538                       # miss rate for SoftPFReq accesses
system.cpu.dcache.SoftPFReq_mshr_misses::.cpu.data           24                       # number of SoftPFReq MSHR misses
system.cpu.dcache.SoftPFReq_mshr_misses::total           24                       # number of SoftPFReq MSHR misses
system.cpu.dcache.SoftPFReq_mshr_miss_latency::.cpu.data      2671500                       # number of SoftPFReq MSHR miss cycles
system.cpu.dcache.SoftPFReq_mshr_miss_latency::total      2671500                       # number of SoftPFReq MSHR miss cycles
system.cpu.dcache.SoftPFReq_mshr_miss_rate::.cpu.data     0.461538                       # mshr miss rate for SoftPFReq accesses
system.cpu.dcache.SoftPFReq_mshr_miss_rate::total     0.461538                       # mshr miss rate for SoftPFReq accesses
system.cpu.dcache.SoftPFReq_avg_mshr_miss_latency::.cpu.data 111312.500000                       # average SoftPFReq mshr miss latency
system.cpu.dcache.SoftPFReq_avg_mshr_miss_latency::total 111312.500000                       # average SoftPFReq mshr miss latency
system.cpu.dcache.LoadLockedReq_hits::.cpu.data           13                       # number of LoadLockedReq hits
system.cpu.dcache.LoadLockedReq_hits::total           13                       # number of LoadLockedReq hits
system.cpu.dcache.LoadLockedReq_misses::.cpu.data            1                       # number of LoadLockedReq misses
system.cpu.dcache.LoadLockedReq_misses::total            1                       # number of LoadLockedReq misses
system.cpu.dcache.LoadLockedReq_miss_latency::.cpu.data        72500                       # number of LoadLockedReq miss cycles
system.cpu.dcache.LoadLockedReq_miss_latency::total        72500                       # number of LoadLockedReq miss cycles
system.cpu.dcache.LoadLockedReq_accesses::.cpu.data           14                       # number of LoadLockedReq accesses(hits+misses)
system.cpu.dcache.LoadLockedReq_accesses::total           14                       # number of LoadLockedReq accesses(hits+misses)
system.cpu.dcache.LoadLockedReq_miss_rate::.cpu.data     0.071429                       # miss rate for LoadLockedReq accesses
system.cpu.dcache.LoadLockedReq_miss_rate::total     0.071429                       # miss rate for LoadLockedReq accesses
system.cpu.dcache.LoadLockedReq_avg_miss_latency::.cpu.data        72500                       # average LoadLockedReq miss latency
system.cpu.dcache.LoadLockedReq_avg_miss_latency::total        72500                       # average LoadLockedReq miss latency
system.cpu.dcache.LoadLockedReq_mshr_misses::.cpu.data            1                       # number of LoadLockedReq MSHR misses
system.cpu.dcache.LoadLockedReq_mshr_misses::total            1                       # number of LoadLockedReq MSHR misses
system.cpu.dcache.LoadLockedReq_mshr_miss_latency::.cpu.data        71500                       # number of LoadLockedReq MSHR miss cycles
system.cpu.dcache.LoadLockedReq_mshr_miss_latency::total        71500                       # number of LoadLockedReq MSHR miss cycles
system.cpu.dcache.LoadLockedReq_mshr_miss_rate::.cpu.data     0.071429                       # mshr miss rate for LoadLockedReq accesses
system.cpu.dcache.LoadLockedReq_mshr_miss_rate::total     0.071429                       # mshr miss rate for LoadLockedReq accesses
system.cpu.dcache.LoadLockedReq_avg_mshr_miss_latency::.cpu.data        71500                       # average LoadLockedReq mshr miss latency
system.cpu.dcache.LoadLockedReq_avg_mshr_miss_latency::total        71500                       # average LoadLockedReq mshr miss latency
system.cpu.dcache.StoreCondReq_hits::.cpu.data           14                       # number of StoreCondReq hits
system.cpu.dcache.StoreCondReq_hits::total           14                       # number of StoreCondReq hits
system.cpu.dcache.StoreCondReq_accesses::.cpu.data           14                       # number of StoreCondReq accesses(hits+misses)
system.cpu.dcache.StoreCondReq_accesses::total           14                       # number of StoreCondReq accesses(hits+misses)
system.cpu.dcache.power_state.pwrStateResidencyTicks::UNDEFINED 280324829500                       # Cumulative time (in ticks) in various power states
system.cpu.dcache.tags.tagsinuse          2046.895349                       # Cycle average of tags in use
system.cpu.dcache.tags.total_refs            45820272                       # Total number of references to valid blocks.
system.cpu.dcache.tags.sampled_refs           2975143                       # Sample count of references to valid blocks.
system.cpu.dcache.tags.avg_refs             15.401032                       # Average number of references to valid blocks.
system.cpu.dcache.tags.warmup_cycle            195500                       # Cycle when the warmup percentage was hit.
system.cpu.dcache.tags.occ_blocks::.cpu.data  2046.895349                       # Average occupied blocks per requestor
system.cpu.dcache.tags.occ_percent::.cpu.data     0.999461                       # Average percentage of cache occupancy
system.cpu.dcache.tags.occ_percent::total     0.999461                       # Average percentage of cache occupancy
system.cpu.dcache.tags.occ_task_id_blocks::1024         2048                       # Occupied blocks per task id
system.cpu.dcache.tags.age_task_id_blocks_1024::0          107                       # Occupied blocks per task id
system.cpu.dcache.tags.age_task_id_blocks_1024::1          953                       # Occupied blocks per task id
system.cpu.dcache.tags.age_task_id_blocks_1024::2          985                       # Occupied blocks per task id
system.cpu.dcache.tags.age_task_id_blocks_1024::4            3                       # Occupied blocks per task id
system.cpu.dcache.tags.occ_task_id_percent::1024            1                       # Percentage of cache occupancy per task id
system.cpu.dcache.tags.tag_accesses         100565569                       # Number of tag accesses
system.cpu.dcache.tags.data_accesses        100565569                       # Number of data accesses
system.cpu.dcache.tags.power_state.pwrStateResidencyTicks::UNDEFINED 280324829500                       # Cumulative time (in ticks) in various power states
system.cpu.dtb.instHits                             0                       # ITB inst hits
system.cpu.dtb.instMisses                           0                       # ITB inst misses
system.cpu.dtb.readHits                             0                       # DTB read hits
system.cpu.dtb.readMisses                           0                       # DTB read misses
system.cpu.dtb.writeHits                            0                       # DTB write hits
system.cpu.dtb.writeMisses                          0                       # DTB write misses
system.cpu.dtb.inserts                              0                       # Number of times an entry is inserted into the TLB
system.cpu.dtb.flushTlb                             0                       # Number of times complete TLB was flushed
system.cpu.dtb.flushTlbMva                          0                       # Number of times TLB was flushed by MVA
system.cpu.dtb.flushTlbMvaAsid                      0                       # Number of times TLB was flushed by MVA & ASID
system.cpu.dtb.flushTlbAsid                         0                       # Number of times TLB was flushed by ASID
system.cpu.dtb.flushedEntries                       0                       # Number of entries that have been flushed from TLB
system.cpu.dtb.alignFaults                          0                       # Number of TLB faults due to alignment restrictions
system.cpu.dtb.prefetchFaults                       0                       # Number of TLB faults due to prefetch
system.cpu.dtb.domainFaults                         0                       # Number of TLB faults due to domain restrictions
system.cpu.dtb.permsFaults                          0                       # Number of TLB faults due to permissions restrictions
system.cpu.dtb.readAccesses                         0                       # DTB read accesses
system.cpu.dtb.writeAccesses                        0                       # DTB write accesses
system.cpu.dtb.instAccesses                         0                       # ITB inst accesses
system.cpu.dtb.hits                                 0                       # Total TLB (inst and data) hits
system.cpu.dtb.misses                               0                       # Total TLB (inst and data) misses
system.cpu.dtb.accesses                             0                       # Total TLB (inst and data) accesses
system.cpu.dtb.stage2_mmu.stage2_tlb.instHits            0                       # ITB inst hits
system.cpu.dtb.stage2_mmu.stage2_tlb.instMisses            0                       # ITB inst misses
system.cpu.dtb.stage2_mmu.stage2_tlb.readHits            0                       # DTB read hits
system.cpu.dtb.stage2_mmu.stage2_tlb.readMisses            0                       # DTB read misses
system.cpu.dtb.stage2_mmu.stage2_tlb.writeHits            0                       # DTB write hits
system.cpu.dtb.stage2_mmu.stage2_tlb.writeMisses            0                       # DTB write misses
system.cpu.dtb.stage2_mmu.stage2_tlb.inserts            0                       # Number of times an entry is inserted into the TLB
system.cpu.dtb.stage2_mmu.stage2_tlb.flushTlb            0                       # Number of times complete TLB was flushed
system.cpu.dtb.stage2_mmu.stage2_tlb.flushTlbMva            0                       # Number of times TLB was flushed by MVA
system.cpu.dtb.stage2_mmu.stage2_tlb.flushTlbMvaAsid            0                       # Number of times TLB was flushed by MVA & ASID
system.cpu.dtb.stage2_mmu.stage2_tlb.flushTlbAsid            0                       # Number of times TLB was flushed by ASID
system.cpu.dtb.stage2_mmu.stage2_tlb.flushedEntries            0                       # Number of entries that have been flushed from TLB
system.cpu.dtb.stage2_mmu.stage2_tlb.alignFaults            0                       # Number of TLB faults due to alignment restrictions
system.cpu.dtb.stage2_mmu.stage2_tlb.prefetchFaults            0                       # Number of TLB faults due to prefetch
system.cpu.dtb.stage2_mmu.stage2_tlb.domainFaults            0                       # Number of TLB faults due to domain restrictions
system.cpu.dtb.stage2_mmu.stage2_tlb.permsFaults            0                       # Number of TLB faults due to permissions restrictions
system.cpu.dtb.stage2_mmu.stage2_tlb.readAccesses            0                       # DTB read accesses
system.cpu.dtb.stage2_mmu.stage2_tlb.writeAccesses            0                       # DTB write accesses
system.cpu.dtb.stage2_mmu.stage2_tlb.instAccesses            0                       # ITB inst accesses
system.cpu.dtb.stage2_mmu.stage2_tlb.hits            0                       # Total TLB (inst and data) hits
system.cpu.dtb.stage2_mmu.stage2_tlb.misses            0                       # Total TLB (inst and data) misses
system.cpu.dtb.stage2_mmu.stage2_tlb.accesses            0                       # Total TLB (inst and data) accesses
system.cpu.dtb.stage2_mmu.stage2_tlb.walker.walks            0                       # Table walker walks requested
system.cpu.dtb.stage2_mmu.stage2_tlb.walker.requestOrigin_Requested::Data            0                       # Table walker requests started/completed, data/inst
system.cpu.dtb.stage2_mmu.stage2_tlb.walker.requestOrigin_Requested::Inst            0                       # Table walker requests started/completed, data/inst
system.cpu.dtb.stage2_mmu.stage2_tlb.walker.requestOrigin_Requested::total            0                       # Table walker requests started/completed, data/inst
system.cpu.dtb.stage2_mmu.stage2_tlb.walker.requestOrigin_Completed::Data            0                       # Table walker requests started/completed, data/inst
system.cpu.dtb.stage2_mmu.stage2_tlb.walker.requestOrigin_Completed::Inst            0                       # Table walker requests started/completed, data/inst
system.cpu.dtb.stage2_mmu.stage2_tlb.walker.requestOrigin_Completed::total            0                       # Table walker requests started/completed, data/inst
system.cpu.dtb.stage2_mmu.stage2_tlb.walker.requestOrigin::total            0                       # Table walker requests started/completed, data/inst
system.cpu.dtb.stage2_mmu.stage2_tlb.walker.power_state.pwrStateResidencyTicks::UNDEFINED 280324829500                       # Cumulative time (in ticks) in various power states
system.cpu.dtb.walker.walks                         0                       # Table walker walks requested
system.cpu.dtb.walker.requestOrigin_Requested::Data            0                       # Table walker requests started/completed, data/inst
system.cpu.dtb.walker.requestOrigin_Requested::Inst            0                       # Table walker requests started/completed, data/inst
system.cpu.dtb.walker.requestOrigin_Requested::total            0                       # Table walker requests started/completed, data/inst
system.cpu.dtb.walker.requestOrigin_Completed::Data            0                       # Table walker requests started/completed, data/inst
system.cpu.dtb.walker.requestOrigin_Completed::Inst            0                       # Table walker requests started/completed, data/inst
system.cpu.dtb.walker.requestOrigin_Completed::total            0                       # Table walker requests started/completed, data/inst
system.cpu.dtb.walker.requestOrigin::total            0                       # Table walker requests started/completed, data/inst
system.cpu.dtb.walker.power_state.pwrStateResidencyTicks::UNDEFINED 280324829500                       # Cumulative time (in ticks) in various power states
system.cpu.fetch2.intInstructions            49664007                       # Number of integer instructions successfully decoded
system.cpu.fetch2.fpInstructions                    0                       # Number of floating point instructions successfully decoded
system.cpu.fetch2.vecInstructions                   0                       # Number of SIMD instructions successfully decoded
system.cpu.fetch2.loadInstructions           37087446                       # Number of memory load instructions successfully decoded
system.cpu.fetch2.storeInstructions          13160869                       # Number of memory store instructions successfully decoded
system.cpu.fetch2.amoInstructions                   0                       # Number of memory atomic instructions successfully decoded
system.cpu.icache.demand_hits::.cpu.inst      9634326                       # number of demand (read+write) hits
system.cpu.icache.demand_hits::total          9634326                       # number of demand (read+write) hits
system.cpu.icache.overall_hits::.cpu.inst      9634326                       # number of overall hits
system.cpu.icache.overall_hits::total         9634326                       # number of overall hits
system.cpu.icache.demand_misses::.cpu.inst          855                       # number of demand (read+write) misses
system.cpu.icache.demand_misses::total            855                       # number of demand (read+write) misses
system.cpu.icache.overall_misses::.cpu.inst          855                       # number of overall misses
system.cpu.icache.overall_misses::total           855                       # number of overall misses
system.cpu.icache.demand_miss_latency::.cpu.inst     60329000                       # number of demand (read+write) miss cycles
system.cpu.icache.demand_miss_latency::total     60329000                       # number of demand (read+write) miss cycles
system.cpu.icache.overall_miss_latency::.cpu.inst     60329000                       # number of overall miss cycles
system.cpu.icache.overall_miss_latency::total     60329000                       # number of overall miss cycles
system.cpu.icache.demand_accesses::.cpu.inst      9635181                       # number of demand (read+write) accesses
system.cpu.icache.demand_accesses::total      9635181                       # number of demand (read+write) accesses
system.cpu.icache.overall_accesses::.cpu.inst      9635181                       # number of overall (read+write) accesses
system.cpu.icache.overall_accesses::total      9635181                       # number of overall (read+write) accesses
system.cpu.icache.demand_miss_rate::.cpu.inst     0.000089                       # miss rate for demand accesses
system.cpu.icache.demand_miss_rate::total     0.000089                       # miss rate for demand accesses
system.cpu.icache.overall_miss_rate::.cpu.inst     0.000089                       # miss rate for overall accesses
system.cpu.icache.overall_miss_rate::total     0.000089                       # miss rate for overall accesses
system.cpu.icache.demand_avg_miss_latency::.cpu.inst 70560.233918                       # average overall miss latency
system.cpu.icache.demand_avg_miss_latency::total 70560.233918                       # average overall miss latency
system.cpu.icache.overall_avg_miss_latency::.cpu.inst 70560.233918                       # average overall miss latency
system.cpu.icache.overall_avg_miss_latency::total 70560.233918                       # average overall miss latency
system.cpu.icache.blocked_cycles::no_mshrs            0                       # number of cycles access was blocked
system.cpu.icache.blocked_cycles::no_targets            0                       # number of cycles access was blocked
system.cpu.icache.blocked::no_mshrs                 0                       # number of cycles access was blocked
system.cpu.icache.blocked::no_targets               0                       # number of cycles access was blocked
system.cpu.icache.avg_blocked_cycles::no_mshrs          nan                       # average number of cycles each access was blocked
system.cpu.icache.avg_blocked_cycles::no_targets          nan                       # average number of cycles each access was blocked
system.cpu.icache.writebacks::.writebacks          283                       # number of writebacks
system.cpu.icache.writebacks::total               283                       # number of writebacks
system.cpu.icache.demand_mshr_misses::.cpu.inst          855                       # number of demand (read+write) MSHR misses
system.cpu.icache.demand_mshr_misses::total          855                       # number of demand (read+write) MSHR misses
system.cpu.icache.overall_mshr_misses::.cpu.inst          855                       # number of overall MSHR misses
system.cpu.icache.overall_mshr_misses::total          855                       # number of overall MSHR misses
system.cpu.icache.demand_mshr_miss_latency::.cpu.inst     59474000                       # number of demand (read+write) MSHR miss cycles
system.cpu.icache.demand_mshr_miss_latency::total     59474000                       # number of demand (read+write) MSHR miss cycles
system.cpu.icache.overall_mshr_miss_latency::.cpu.inst     59474000                       # number of overall MSHR miss cycles
system.cpu.icache.overall_mshr_miss_latency::total     59474000                       # number of overall MSHR miss cycles
system.cpu.icache.demand_mshr_miss_rate::.cpu.inst     0.000089                       # mshr miss rate for demand accesses
system.cpu.icache.demand_mshr_miss_rate::total     0.000089                       # mshr miss rate for demand accesses
system.cpu.icache.overall_mshr_miss_rate::.cpu.inst     0.000089                       # mshr miss rate for overall accesses
system.cpu.icache.overall_mshr_miss_rate::total     0.000089                       # mshr miss rate for overall accesses
system.cpu.icache.demand_avg_mshr_miss_latency::.cpu.inst 69560.233918                       # average overall mshr miss latency
system.cpu.icache.demand_avg_mshr_miss_latency::total 69560.233918                       # average overall mshr miss latency
system.cpu.icache.overall_avg_mshr_miss_latency::.cpu.inst 69560.233918                       # average overall mshr miss latency
system.cpu.icache.overall_avg_mshr_miss_latency::total 69560.233918                       # average overall mshr miss latency
system.cpu.icache.replacements                    283                       # number of replacements
system.cpu.icache.ReadReq_hits::.cpu.inst      9634326                       # number of ReadReq hits
system.cpu.icache.ReadReq_hits::total         9634326                       # number of ReadReq hits
system.cpu.icache.ReadReq_misses::.cpu.inst          855                       # number of ReadReq misses
system.cpu.icache.ReadReq_misses::total           855                       # number of ReadReq misses
system.cpu.icache.ReadReq_miss_latency::.cpu.inst     60329000                       # number of ReadReq miss cycles
system.cpu.icache.ReadReq_miss_latency::total     60329000                       # number of ReadReq miss cycles
system.cpu.icache.ReadReq_accesses::.cpu.inst      9635181                       # number of ReadReq accesses(hits+misses)
system.cpu.icache.ReadReq_accesses::total      9635181                       # number of ReadReq accesses(hits+misses)
system.cpu.icache.ReadReq_miss_rate::.cpu.inst     0.000089                       # miss rate for ReadReq accesses
system.cpu.icache.ReadReq_miss_rate::total     0.000089                       # miss rate for ReadReq accesses
system.cpu.icache.ReadReq_avg_miss_latency::.cpu.inst 70560.233918                       # average ReadReq miss latency
system.cpu.icache.ReadReq_avg_miss_latency::total 70560.233918                       # average ReadReq miss latency
system.cpu.icache.ReadReq_mshr_misses::.cpu.inst          855                       # number of ReadReq MSHR misses
system.cpu.icache.ReadReq_mshr_misses::total          855                       # number of ReadReq MSHR misses
system.cpu.icache.ReadReq_mshr_miss_latency::.cpu.inst     59474000                       # number of ReadReq MSHR miss cycles
system.cpu.icache.ReadReq_mshr_miss_latency::total     59474000                       # number of ReadReq MSHR miss cycles
system.cpu.icache.ReadReq_mshr_miss_rate::.cpu.inst     0.000089                       # mshr miss rate for ReadReq accesses
system.cpu.icache.ReadReq_mshr_miss_rate::total     0.000089                       # mshr miss rate for ReadReq accesses
system.cpu.icache.ReadReq_avg_mshr_miss_latency::.cpu.inst 69560.233918                       # average ReadReq mshr miss latency
system.cpu.icache.ReadReq_avg_mshr_miss_latency::total 69560.233918                       # average ReadReq mshr miss latency
system.cpu.icache.power_state.pwrStateResidencyTicks::UNDEFINED 280324829500                       # Cumulative time (in ticks) in various power states
system.cpu.icache.tags.tagsinuse           571.930812                       # Cycle average of tags in use
system.cpu.icache.tags.total_refs             9635181                       # Total number of references to valid blocks.
system.cpu.icache.tags.sampled_refs               855                       # Sample count of references to valid blocks.
system.cpu.icache.tags.avg_refs          11269.217544                       # Average number of references to valid blocks.
system.cpu.icache.tags.warmup_cycle             87500                       # Cycle when the warmup percentage was hit.
system.cpu.icache.tags.occ_blocks::.cpu.inst   571.930812                       # Average occupied blocks per requestor
system.cpu.icache.tags.occ_percent::.cpu.inst     0.558526                       # Average percentage of cache occupancy
system.cpu.icache.tags.occ_percent::total     0.558526                       # Average percentage of cache occupancy
system.cpu.icache.tags.occ_task_id_blocks::1024          572                       # Occupied blocks per task id
system.cpu.icache.tags.age_task_id_blocks_1024::4          572                       # Occupied blocks per task id
system.cpu.icache.tags.occ_task_id_percent::1024     0.558594                       # Percentage of cache occupancy per task id
system.cpu.icache.tags.tag_accesses          19271217                       # Number of tag accesses
system.cpu.icache.tags.data_accesses         19271217                       # Number of data accesses
system.cpu.icache.tags.power_state.pwrStateResidencyTicks::UNDEFINED 280324829500                       # Cumulative time (in ticks) in various power states
system.cpu.itb.instHits                             0                       # ITB inst hits
system.cpu.itb.instMisses                           0                       # ITB inst misses
system.cpu.itb.readHits                             0                       # DTB read hits
system.cpu.itb.readMisses                           0                       # DTB read misses
system.cpu.itb.writeHits                            0                       # DTB write hits
system.cpu.itb.writeMisses                          0                       # DTB write misses
system.cpu.itb.inserts                              0                       # Number of times an entry is inserted into the TLB
system.cpu.itb.flushTlb                             0                       # Number of times complete TLB was flushed
system.cpu.itb.flushTlbMva                          0                       # Number of times TLB was flushed by MVA
system.cpu.itb.flushTlbMvaAsid                      0                       # Number of times TLB was flushed by MVA & ASID
system.cpu.itb.flushTlbAsid                         0                       # Number of times TLB was flushed by ASID
system.cpu.itb.flushedEntries                       0                       # Number of entries that have been flushed from TLB
system.cpu.itb.alignFaults                          0                       # Number of TLB faults due to alignment restrictions
system.cpu.itb.prefetchFaults                       0                       # Number of TLB faults due to prefetch
system.cpu.itb.domainFaults                         0                       # Number of TLB faults due to domain restrictions
system.cpu.itb.permsFaults                          0                       # Number of TLB faults due to permissions restrictions
system.cpu.itb.readAccesses                         0                       # DTB read accesses
system.cpu.itb.writeAccesses                        0                       # DTB write accesses
system.cpu.itb.instAccesses                         0                       # ITB inst accesses
system.cpu.itb.hits                                 0                       # Total TLB (inst and data) hits
system.cpu.itb.misses                               0                       # Total TLB (inst and data) misses
system.cpu.itb.accesses                             0                       # Total TLB (inst and data) accesses
system.cpu.itb.stage2_mmu.stage2_tlb.instHits            0                       # ITB inst hits
system.cpu.itb.stage2_mmu.stage2_tlb.instMisses            0                       # ITB inst misses
system.cpu.itb.stage2_mmu.stage2_tlb.readHits            0                       # DTB read hits
system.cpu.itb.stage2_mmu.stage2_tlb.readMisses            0                       # DTB read misses
system.cpu.itb.stage2_mmu.stage2_tlb.writeHits            0                       # DTB write hits
system.cpu.itb.stage2_mmu.stage2_tlb.writeMisses            0                       # DTB write misses
system.cpu.itb.stage2_mmu.stage2_tlb.inserts            0                       # Number of times an entry is inserted into the TLB
system.cpu.itb.stage2_mmu.stage2_tlb.flushTlb            0                       # Number of times complete TLB was flushed
system.cpu.itb.stage2_mmu.stage2_tlb.flushTlbMva            0                       # Number of times TLB was flushed by MVA
system.cpu.itb.stage2_mmu.stage2_tlb.flushTlbMvaAsid            0                       # Number of times TLB was flushed by MVA & ASID
system.cpu.itb.stage2_mmu.stage2_tlb.flushTlbAsid            0                       # Number of times TLB was flushed by ASID
system.cpu.itb.stage2_mmu.stage2_tlb.flushedEntries            0                       # Number of entries that have been flushed from TLB
system.cpu.itb.stage2_mmu.stage2_tlb.alignFaults            0                       # Number of TLB faults due to alignment restrictions
system.cpu.itb.stage2_mmu.stage2_tlb.prefetchFaults            0                       # Number of TLB faults due to prefetch
system.cpu.itb.stage2_mmu.stage2_tlb.domainFaults            0                       # Number of TLB faults due to domain restrictions
system.cpu.itb.stage2_mmu.stage2_tlb.permsFaults            0                       # Number of TLB faults due to permissions restrictions
system.cpu.itb.stage2_mmu.stage2_tlb.readAccesses            0                       # DTB read accesses
system.cpu.itb.stage2_mmu.stage2_tlb.writeAccesses            0                       # DTB write accesses
system.cpu.itb.stage2_mmu.stage2_tlb.instAccesses            0                       # ITB inst accesses
system.cpu.itb.stage2_mmu.stage2_tlb.hits            0                       # Total TLB (inst and data) hits
system.cpu.itb.stage2_mmu.stage2_tlb.misses            0                       # Total TLB (inst and data) misses
system.cpu.itb.stage2_mmu.stage2_tlb.accesses            0                       # Total TLB (inst and data) accesses
system.cpu.itb.stage2_mmu.stage2_tlb.walker.walks            0                       # Table walker walks requested
system.cpu.itb.stage2_mmu.stage2_tlb.walker.requestOrigin_Requested::Data            0                       # Table walker requests started/completed, data/inst
system.cpu.itb.stage2_mmu.stage2_tlb.walker.requestOrigin_Requested::Inst            0                       # Table walker requests started/completed, data/inst
system.cpu.itb.stage2_mmu.stage2_tlb.walker.requestOrigin_Requested::total            0                       # Table walker requests started/completed, data/inst
system.cpu.itb.stage2_mmu.stage2_tlb.walker.requestOrigin_Completed::Data            0                       # Table walker requests started/completed, data/inst
system.cpu.itb.stage2_mmu.stage2_tlb.walker.requestOrigin_Completed::Inst            0                       # Table walker requests started/completed, data/inst
system.cpu.itb.stage2_mmu.stage2_tlb.walker.requestOrigin_Completed::total            0                       # Table walker requests started/completed, data/inst
system.cpu.itb.stage2_mmu.stage2_tlb.walker.requestOrigin::total            0                       # Table walker requests started/completed, data/inst
system.cpu.itb.stage2_mmu.stage2_tlb.walker.power_state.pwrStateResidencyTicks::UNDEFINED 280324829500                       # Cumulative time (in ticks) in various power states
system.cpu.itb.walker.walks                         0                       # Table walker walks requested
system.cpu.itb.walker.requestOrigin_Requested::Data            0                       # Table walker requests started/completed, data/inst
system.cpu.itb.walker.requestOrigin_Requested::Inst            0                       # Table walker requests started/completed, data/inst
system.cpu.itb.walker.requestOrigin_Requested::total            0                       # Table walker requests started/completed, data/inst
system.cpu.itb.walker.requestOrigin_Completed::Data            0                       # Table walker requests started/completed, data/inst
system.cpu.itb.walker.requestOrigin_Completed::Inst            0                       # Table walker requests started/completed, data/inst
system.cpu.itb.walker.requestOrigin_Completed::total            0                       # Table walker requests started/completed, data/inst
system.cpu.itb.walker.requestOrigin::total            0                       # Table walker requests started/completed, data/inst
system.cpu.itb.walker.power_state.pwrStateResidencyTicks::UNDEFINED 280324829500                       # Cumulative time (in ticks) in various power states
system.cpu.power_state.pwrStateResidencyTicks::ON 280324829500                       # Cumulative time (in ticks) in various power states
system.cpu.thread_0.numInsts                100000001                       # Number of Instructions committed
system.cpu.thread_0.numOps                  100003447                       # Number of Ops committed
system.cpu.thread_0.numMemRefs                      0                       # Number of Memory References
system.cpu_clk_domain.clock                       500                       # Clock period in ticks
system.cpu_voltage_domain.voltage                   1                       # Voltage in Volts
system.l2.demand_hits::.cpu.inst                   79                       # number of demand (read+write) hits
system.l2.demand_hits::.cpu.data                    9                       # number of demand (read+write) hits
system.l2.demand_hits::total                       88                       # number of demand (read+write) hits
system.l2.overall_hits::.cpu.inst                  79                       # number of overall hits
system.l2.overall_hits::.cpu.data                   9                       # number of overall hits
system.l2.overall_hits::total                      88                       # number of overall hits
system.l2.demand_misses::.cpu.inst                776                       # number of demand (read+write) misses
system.l2.demand_misses::.cpu.data            2975134                       # number of demand (read+write) misses
system.l2.demand_misses::total                2975910                       # number of demand (read+write) misses
system.l2.overall_misses::.cpu.inst               776                       # number of overall misses
system.l2.overall_misses::.cpu.data           2975134                       # number of overall misses
system.l2.overall_misses::total               2975910                       # number of overall misses
system.l2.demand_miss_latency::.cpu.inst     57339000                       # number of demand (read+write) miss cycles
system.l2.demand_miss_latency::.cpu.data 228710138000                       # number of demand (read+write) miss cycles
system.l2.demand_miss_latency::total     228767477000                       # number of demand (read+write) miss cycles
system.l2.overall_miss_latency::.cpu.inst     57339000                       # number of overall miss cycles
system.l2.overall_miss_latency::.cpu.data 228710138000                       # number of overall miss cycles
system.l2.overall_miss_latency::total    228767477000                       # number of overall miss cycles
system.l2.demand_accesses::.cpu.inst              855                       # number of demand (read+write) accesses
system.l2.demand_accesses::.cpu.data          2975143                       # number of demand (read+write) accesses
system.l2.demand_accesses::total              2975998                       # number of demand (read+write) accesses
system.l2.overall_accesses::.cpu.inst             855                       # number of overall (read+write) accesses
system.l2.overall_accesses::.cpu.data         2975143                       # number of overall (read+write) accesses
system.l2.overall_accesses::total             2975998                       # number of overall (read+write) accesses
system.l2.demand_miss_rate::.cpu.inst        0.907602                       # miss rate for demand accesses
system.l2.demand_miss_rate::.cpu.data        0.999997                       # miss rate for demand accesses
system.l2.demand_miss_rate::total            0.999970                       # miss rate for demand accesses
system.l2.overall_miss_rate::.cpu.inst       0.907602                       # miss rate for overall accesses
system.l2.overall_miss_rate::.cpu.data       0.999997                       # miss rate for overall accesses
system.l2.overall_miss_rate::total           0.999970                       # miss rate for overall accesses
system.l2.demand_avg_miss_latency::.cpu.inst 73890.463918                       # average overall miss latency
system.l2.demand_avg_miss_latency::.cpu.data 76873.894756                       # average overall miss latency
system.l2.demand_avg_miss_latency::total 76873.116795                       # average overall miss latency
system.l2.overall_avg_miss_latency::.cpu.inst 73890.463918                       # average overall miss latency
system.l2.overall_avg_miss_latency::.cpu.data 76873.894756                       # average overall miss latency
system.l2.overall_avg_miss_latency::total 76873.116795                       # average overall miss latency
system.l2.blocked_cycles::no_mshrs                  0                       # number of cycles access was blocked
system.l2.blocked_cycles::no_targets                0                       # number of cycles access was blocked
system.l2.blocked::no_mshrs                         0                       # number of cycles access was blocked
system.l2.blocked::no_targets                       0                       # number of cycles access was blocked
system.l2.avg_blocked_cycles::no_mshrs            nan                       # average number of cycles each access was blocked
system.l2.avg_blocked_cycles::no_targets          nan                       # average number of cycles each access was blocked
system.l2.writebacks::.writebacks             2909463                       # number of writebacks
system.l2.writebacks::total                   2909463                       # number of writebacks
system.l2.demand_mshr_hits::.cpu.data               5                       # number of demand (read+write) MSHR hits
system.l2.demand_mshr_hits::total                   5                       # number of demand (read+write) MSHR hits
system.l2.overall_mshr_hits::.cpu.data              5                       # number of overall MSHR hits
system.l2.overall_mshr_hits::total                  5                       # number of overall MSHR hits
system.l2.demand_mshr_misses::.cpu.inst           776                       # number of demand (read+write) MSHR misses
system.l2.demand_mshr_misses::.cpu.data       2975129                       # number of demand (read+write) MSHR misses
system.l2.demand_mshr_misses::total           2975905                       # number of demand (read+write) MSHR misses
system.l2.overall_mshr_misses::.cpu.inst          776                       # number of overall MSHR misses
system.l2.overall_mshr_misses::.cpu.data      2975129                       # number of overall MSHR misses
system.l2.overall_mshr_misses::total          2975905                       # number of overall MSHR misses
system.l2.demand_mshr_miss_latency::.cpu.inst     49579000                       # number of demand (read+write) MSHR miss cycles
system.l2.demand_mshr_miss_latency::.cpu.data 198958514500                       # number of demand (read+write) MSHR miss cycles
system.l2.demand_mshr_miss_latency::total 199008093500                       # number of demand (read+write) MSHR miss cycles
system.l2.overall_mshr_miss_latency::.cpu.inst     49579000                       # number of overall MSHR miss cycles
system.l2.overall_mshr_miss_latency::.cpu.data 198958514500                       # number of overall MSHR miss cycles
system.l2.overall_mshr_miss_latency::total 199008093500                       # number of overall MSHR miss cycles
system.l2.demand_mshr_miss_rate::.cpu.inst     0.907602                       # mshr miss rate for demand accesses
system.l2.demand_mshr_miss_rate::.cpu.data     0.999995                       # mshr miss rate for demand accesses
system.l2.demand_mshr_miss_rate::total       0.999969                       # mshr miss rate for demand accesses
system.l2.overall_mshr_miss_rate::.cpu.inst     0.907602                       # mshr miss rate for overall accesses
system.l2.overall_mshr_miss_rate::.cpu.data     0.999995                       # mshr miss rate for overall accesses
system.l2.overall_mshr_miss_rate::total      0.999969                       # mshr miss rate for overall accesses
system.l2.demand_avg_mshr_miss_latency::.cpu.inst 63890.463918                       # average overall mshr miss latency
system.l2.demand_avg_mshr_miss_latency::.cpu.data 66873.911854                       # average overall mshr miss latency
system.l2.demand_avg_mshr_miss_latency::total 66873.133887                       # average overall mshr miss latency
system.l2.overall_avg_mshr_miss_latency::.cpu.inst 63890.463918                       # average overall mshr miss latency
system.l2.overall_avg_mshr_miss_latency::.cpu.data 66873.911854                       # average overall mshr miss latency
system.l2.overall_avg_mshr_miss_latency::total 66873.133887                       # average overall mshr miss latency
system.l2.replacements                        2910369                       # number of replacements
system.l2.WritebackDirty_hits::.writebacks      2972954                       # number of WritebackDirty hits
system.l2.WritebackDirty_hits::total          2972954                       # number of WritebackDirty hits
system.l2.WritebackDirty_accesses::.writebacks      2972954                       # number of WritebackDirty accesses(hits+misses)
system.l2.WritebackDirty_accesses::total      2972954                       # number of WritebackDirty accesses(hits+misses)
system.l2.WritebackClean_hits::.writebacks          278                       # number of WritebackClean hits
system.l2.WritebackClean_hits::total              278                       # number of WritebackClean hits
system.l2.WritebackClean_accesses::.writebacks          278                       # number of WritebackClean accesses(hits+misses)
system.l2.WritebackClean_accesses::total          278                       # number of WritebackClean accesses(hits+misses)
system.l2.ReadExReq_misses::.cpu.data         2974975                       # number of ReadExReq misses
system.l2.ReadExReq_misses::total             2974975                       # number of ReadExReq misses
system.l2.ReadExReq_miss_latency::.cpu.data 228697308500                       # number of ReadExReq miss cycles
system.l2.ReadExReq_miss_latency::total  228697308500                       # number of ReadExReq miss cycles
system.l2.ReadExReq_accesses::.cpu.data       2974975                       # number of ReadExReq accesses(hits+misses)
system.l2.ReadExReq_accesses::total           2974975                       # number of ReadExReq accesses(hits+misses)
system.l2.ReadExReq_miss_rate::.cpu.data            1                       # miss rate for ReadExReq accesses
system.l2.ReadExReq_miss_rate::total                1                       # miss rate for ReadExReq accesses
system.l2.ReadExReq_avg_miss_latency::.cpu.data 76873.690871                       # average ReadExReq miss latency
system.l2.ReadExReq_avg_miss_latency::total 76873.690871                       # average ReadExReq miss latency
system.l2.ReadExReq_mshr_misses::.cpu.data      2974975                       # number of ReadExReq MSHR misses
system.l2.ReadExReq_mshr_misses::total        2974975                       # number of ReadExReq MSHR misses
system.l2.ReadExReq_mshr_miss_latency::.cpu.data 198947558500                       # number of ReadExReq MSHR miss cycles
system.l2.ReadExReq_mshr_miss_latency::total 198947558500                       # number of ReadExReq MSHR miss cycles
system.l2.ReadExReq_mshr_miss_rate::.cpu.data            1                       # mshr miss rate for ReadExReq accesses
system.l2.ReadExReq_mshr_miss_rate::total            1                       # mshr miss rate for ReadExReq accesses
system.l2.ReadExReq_avg_mshr_miss_latency::.cpu.data 66873.690871                       # average ReadExReq mshr miss latency
system.l2.ReadExReq_avg_mshr_miss_latency::total 66873.690871                       # average ReadExReq mshr miss latency
system.l2.ReadCleanReq_hits::.cpu.inst             79                       # number of ReadCleanReq hits
system.l2.ReadCleanReq_hits::total                 79                       # number of ReadCleanReq hits
system.l2.ReadCleanReq_misses::.cpu.inst          776                       # number of ReadCleanReq misses
system.l2.ReadCleanReq_misses::total              776                       # number of ReadCleanReq misses
system.l2.ReadCleanReq_miss_latency::.cpu.inst     57339000                       # number of ReadCleanReq miss cycles
system.l2.ReadCleanReq_miss_latency::total     57339000                       # number of ReadCleanReq miss cycles
system.l2.ReadCleanReq_accesses::.cpu.inst          855                       # number of ReadCleanReq accesses(hits+misses)
system.l2.ReadCleanReq_accesses::total            855                       # number of ReadCleanReq accesses(hits+misses)
system.l2.ReadCleanReq_miss_rate::.cpu.inst     0.907602                       # miss rate for ReadCleanReq accesses
system.l2.ReadCleanReq_miss_rate::total      0.907602                       # miss rate for ReadCleanReq accesses
system.l2.ReadCleanReq_avg_miss_latency::.cpu.inst 73890.463918                       # average ReadCleanReq miss latency
system.l2.ReadCleanReq_avg_miss_latency::total 73890.463918                       # average ReadCleanReq miss latency
system.l2.ReadCleanReq_mshr_misses::.cpu.inst          776                       # number of ReadCleanReq MSHR misses
system.l2.ReadCleanReq_mshr_misses::total          776                       # number of ReadCleanReq MSHR misses
system.l2.ReadCleanReq_mshr_miss_latency::.cpu.inst     49579000                       # number of ReadCleanReq MSHR miss cycles
system.l2.ReadCleanReq_mshr_miss_latency::total     49579000                       # number of ReadCleanReq MSHR miss cycles
system.l2.ReadCleanReq_mshr_miss_rate::.cpu.inst     0.907602                       # mshr miss rate for ReadCleanReq accesses
system.l2.ReadCleanReq_mshr_miss_rate::total     0.907602                       # mshr miss rate for ReadCleanReq accesses
system.l2.ReadCleanReq_avg_mshr_miss_latency::.cpu.inst 63890.463918                       # average ReadCleanReq mshr miss latency
system.l2.ReadCleanReq_avg_mshr_miss_latency::total 63890.463918                       # average ReadCleanReq mshr miss latency
system.l2.ReadSharedReq_hits::.cpu.data             9                       # number of ReadSharedReq hits
system.l2.ReadSharedReq_hits::total                 9                       # number of ReadSharedReq hits
system.l2.ReadSharedReq_misses::.cpu.data          159                       # number of ReadSharedReq misses
system.l2.ReadSharedReq_misses::total             159                       # number of ReadSharedReq misses
system.l2.ReadSharedReq_miss_latency::.cpu.data     12829500                       # number of ReadSharedReq miss cycles
system.l2.ReadSharedReq_miss_latency::total     12829500                       # number of ReadSharedReq miss cycles
system.l2.ReadSharedReq_accesses::.cpu.data          168                       # number of ReadSharedReq accesses(hits+misses)
system.l2.ReadSharedReq_accesses::total           168                       # number of ReadSharedReq accesses(hits+misses)
system.l2.ReadSharedReq_miss_rate::.cpu.data     0.946429                       # miss rate for ReadSharedReq accesses
system.l2.ReadSharedReq_miss_rate::total     0.946429                       # miss rate for ReadSharedReq accesses
system.l2.ReadSharedReq_avg_miss_latency::.cpu.data 80688.679245                       # average ReadSharedReq miss latency
system.l2.ReadSharedReq_avg_miss_latency::total 80688.679245                       # average ReadSharedReq miss latency
system.l2.ReadSharedReq_mshr_hits::.cpu.data            5                       # number of ReadSharedReq MSHR hits
system.l2.ReadSharedReq_mshr_hits::total            5                       # number of ReadSharedReq MSHR hits
system.l2.ReadSharedReq_mshr_misses::.cpu.data          154                       # number of ReadSharedReq MSHR misses
system.l2.ReadSharedReq_mshr_misses::total          154                       # number of ReadSharedReq MSHR misses
system.l2.ReadSharedReq_mshr_miss_latency::.cpu.data     10956000                       # number of ReadSharedReq MSHR miss cycles
system.l2.ReadSharedReq_mshr_miss_latency::total     10956000                       # number of ReadSharedReq MSHR miss cycles
system.l2.ReadSharedReq_mshr_miss_rate::.cpu.data     0.916667                       # mshr miss rate for ReadSharedReq accesses
system.l2.ReadSharedReq_mshr_miss_rate::total     0.916667                       # mshr miss rate for ReadSharedReq accesses
system.l2.ReadSharedReq_avg_mshr_miss_latency::.cpu.data 71142.857143                       # average ReadSharedReq mshr miss latency
system.l2.ReadSharedReq_avg_mshr_miss_latency::total 71142.857143                       # average ReadSharedReq mshr miss latency
system.l2.power_state.pwrStateResidencyTicks::UNDEFINED 280324829500                       # Cumulative time (in ticks) in various power states
system.l2.tags.tagsinuse                 64844.876724                       # Cycle average of tags in use
system.l2.tags.total_refs                     5949346                       # Total number of references to valid blocks.
system.l2.tags.sampled_refs                   2975905                       # Sample count of references to valid blocks.
system.l2.tags.avg_refs                      1.999172                       # Average number of references to valid blocks.
system.l2.tags.warmup_cycle                     77000                       # Cycle when the warmup percentage was hit.
system.l2.tags.occ_blocks::.cpu.inst        15.738406                       # Average occupied blocks per requestor
system.l2.tags.occ_blocks::.cpu.data     64829.138319                       # Average occupied blocks per requestor
system.l2.tags.occ_percent::.cpu.inst        0.000240                       # Average percentage of cache occupancy
system.l2.tags.occ_percent::.cpu.data        0.989214                       # Average percentage of cache occupancy
system.l2.tags.occ_percent::total            0.989454                       # Average percentage of cache occupancy
system.l2.tags.occ_task_id_blocks::1024         65536                       # Occupied blocks per task id
system.l2.tags.age_task_id_blocks_1024::0          107                       # Occupied blocks per task id
system.l2.tags.age_task_id_blocks_1024::1          952                       # Occupied blocks per task id
system.l2.tags.age_task_id_blocks_1024::2         9547                       # Occupied blocks per task id
system.l2.tags.age_task_id_blocks_1024::3        54930                       # Occupied blocks per task id
system.l2.tags.occ_task_id_percent::1024            1                       # Percentage of cache occupancy per task id
system.l2.tags.tag_accesses                  50570713                       # Number of tag accesses
system.l2.tags.data_accesses                 50570713                       # Number of data accesses
system.l2.tags.power_state.pwrStateResidencyTicks::UNDEFINED 280324829500                       # Cumulative time (in ticks) in various power states
system.mem_ctrls.avgPriority_.writebacks::samples   1454744.00                       # Average QoS priority value for accepted requests
system.mem_ctrls.avgPriority_.cpu.inst::samples       776.00                       # Average QoS priority value for accepted requests
system.mem_ctrls.avgPriority_.cpu.data::samples   2975129.00                       # Average QoS priority value for accepted requests
system.mem_ctrls.priorityMinLatency      0.000000018750                       # per QoS priority minimum request to response latency (s)
system.mem_ctrls.priorityMaxLatency      0.000122364500                       # per QoS priority maximum request to response latency (s)
system.mem_ctrls.numReadWriteTurnArounds        90920                       # Number of turnarounds from READ to WRITE
system.mem_ctrls.numWriteReadTurnArounds        90920                       # Number of turnarounds from WRITE to READ
system.mem_ctrls.numStayReadState             8838661                       # Number of times bus staying in READ state
system.mem_ctrls.numStayWriteState            1366640                       # Number of times bus staying in WRITE state
system.mem_ctrls.readReqs                     2975905                       # Number of read requests accepted
system.mem_ctrls.writeReqs                    2909463                       # Number of write requests accepted
system.mem_ctrls.readBursts                   2975905                       # Number of controller read bursts, including those serviced by the write queue
system.mem_ctrls.writeBursts                  2909463                       # Number of controller write bursts, including those merged in the write queue
system.mem_ctrls.servicedByWrQ                      0                       # Number of controller read bursts serviced by the write queue
system.mem_ctrls.mergedWrBursts               1454719                       # Number of controller write bursts merged with an existing one
system.mem_ctrls.neitherReadNorWriteReqs            0                       # Number of requests that are neither read nor write
system.mem_ctrls.avgRdQLen                       1.00                       # Average read queue length when enqueuing
system.mem_ctrls.avgWrQLen                      25.26                       # Average write queue length when enqueuing
system.mem_ctrls.numRdRetry                         0                       # Number of times read queue was full causing retry
system.mem_ctrls.numWrRetry                         0                       # Number of times write queue was full causing retry
system.mem_ctrls.readPktSize::0                     0                       # Read request sizes (log2)
system.mem_ctrls.readPktSize::1                     0                       # Read request sizes (log2)
system.mem_ctrls.readPktSize::2                     0                       # Read request sizes (log2)
system.mem_ctrls.readPktSize::3                     0                       # Read request sizes (log2)
system.mem_ctrls.readPktSize::4                     0                       # Read request sizes (log2)
system.mem_ctrls.readPktSize::5               2975905                       # Read request sizes (log2)
system.mem_ctrls.writePktSize::0                    0                       # Write request sizes (log2)
system.mem_ctrls.writePktSize::1                    0                       # Write request sizes (log2)
system.mem_ctrls.writePktSize::2                    0                       # Write request sizes (log2)
system.mem_ctrls.writePktSize::3                    0                       # Write request sizes (log2)
system.mem_ctrls.writePktSize::4                    0                       # Write request sizes (log2)
system.mem_ctrls.writePktSize::5              2909463                       # Write request sizes (log2)
system.mem_ctrls.rdQLenPdf::0                 2975740                       # What read queue length does an incoming req see
system.mem_ctrls.rdQLenPdf::1                     151                       # What read queue length does an incoming req see
[...]
system.mem_ctrls.dram.bw_write::.writebacks    332124757                       # Write bandwidth from this memory (bytes/s)
system.mem_ctrls.dram.bw_write::total       332124757                       # Write bandwidth from this memory (bytes/s)
system.mem_ctrls.dram.bw_total::.writebacks    332124757                       # Total bandwidth to/from this memory (bytes/s)
system.mem_ctrls.dram.bw_total::.cpu.inst        88583                       # Total bandwidth to/from this memory (bytes/s)
system.mem_ctrls.dram.bw_total::.cpu.data    339620747                       # Total bandwidth to/from this memory (bytes/s)
system.mem_ctrls.dram.bw_total::total       671834087                       # Total bandwidth to/from this memory (bytes/s)
system.mem_ctrls.dram.readBursts              2975905                       # Number of DRAM read bursts
system.mem_ctrls.dram.writeBursts             1454720                       # Number of DRAM write bursts
system.mem_ctrls.dram.perBankRdBursts::0       185977                       # Per bank write bursts
system.mem_ctrls.dram.perBankRdBursts::1       185941                       # Per bank write bursts
system.mem_ctrls.dram.perBankRdBursts::2       186050                       # Per bank write bursts
system.mem_ctrls.dram.perBankRdBursts::3       186030                       # Per bank write bursts
system.mem_ctrls.dram.perBankRdBursts::4       186177                       # Per bank write bursts
system.mem_ctrls.dram.perBankRdBursts::5       186122                       # Per bank write bursts
system.mem_ctrls.dram.perBankRdBursts::6       186154                       # Per bank write bursts
system.mem_ctrls.dram.perBankRdBursts::7       186130                       # Per bank write bursts
system.mem_ctrls.dram.perBankRdBursts::8       185965                       # Per bank write bursts
system.mem_ctrls.dram.perBankRdBursts::9       185882                       # Per bank write bursts
system.mem_ctrls.dram.perBankRdBursts::10       185909                       # Per bank write bursts
system.mem_ctrls.dram.perBankRdBursts::11       185889                       # Per bank write bursts
system.mem_ctrls.dram.perBankRdBursts::12       185995                       # Per bank write bursts
system.mem_ctrls.dram.perBankRdBursts::13       185859                       # Per bank write bursts
system.mem_ctrls.dram.perBankRdBursts::14       185882                       # Per bank write bursts
system.mem_ctrls.dram.perBankRdBursts::15       185943                       # Per bank write bursts
system.mem_ctrls.dram.perBankWrBursts::0        90904                       # Per bank write bursts
system.mem_ctrls.dram.perBankWrBursts::1        90895                       # Per bank write bursts
system.mem_ctrls.dram.perBankWrBursts::2        90885                       # Per bank write bursts
system.mem_ctrls.dram.perBankWrBursts::3        90945                       # Per bank write bursts
system.mem_ctrls.dram.perBankWrBursts::4        91008                       # Per bank write bursts
system.mem_ctrls.dram.perBankWrBursts::5        91008                       # Per bank write bursts
system.mem_ctrls.dram.perBankWrBursts::6        91008                       # Per bank write bursts
system.mem_ctrls.dram.perBankWrBursts::7        90985                       # Per bank write bursts
system.mem_ctrls.dram.perBankWrBursts::8        90880                       # Per bank write bursts
system.mem_ctrls.dram.perBankWrBursts::9        90880                       # Per bank write bursts
system.mem_ctrls.dram.perBankWrBursts::10        90880                       # Per bank write bursts
system.mem_ctrls.dram.perBankWrBursts::11        90880                       # Per bank write bursts
system.mem_ctrls.dram.perBankWrBursts::12        90880                       # Per bank write bursts
system.mem_ctrls.dram.perBankWrBursts::13        90880                       # Per bank write bursts
system.mem_ctrls.dram.perBankWrBursts::14        90883                       # Per bank write bursts
system.mem_ctrls.dram.perBankWrBursts::15        90919                       # Per bank write bursts
system.mem_ctrls.dram.totQLat             21895768250                       # Total ticks spent queuing
system.mem_ctrls.dram.totBusLat           14879525000                       # Total ticks spent in databus transfers
system.mem_ctrls.dram.totMemAccLat        77693987000                       # Total ticks spent from burst creation until serviced by the DRAM
system.mem_ctrls.dram.avgQLat                 7357.68                       # Average queueing delay per DRAM burst
system.mem_ctrls.dram.avgBusLat               5000.00                       # Average bus latency per DRAM burst
system.mem_ctrls.dram.avgMemAccLat           26107.68                       # Average memory access latency per DRAM burst
system.mem_ctrls.dram.readRowHits             2753136                       # Number of row buffer hits during reads
system.mem_ctrls.dram.writeRowHits            1351013                       # Number of row buffer hits during writes
system.mem_ctrls.dram.readRowHitRate            92.51                       # Row buffer hit rate for reads
system.mem_ctrls.dram.writeRowHitRate           92.87                       # Row buffer hit rate for writes
system.mem_ctrls.dram.bytesPerActivate::samples       326474                       # Bytes accessed per row activation
system.mem_ctrls.dram.bytesPerActivate::mean   868.550341                       # Bytes accessed per row activation
system.mem_ctrls.dram.bytesPerActivate::gmean   786.902492                       # Bytes accessed per row activation
system.mem_ctrls.dram.bytesPerActivate::stdev   270.997768                       # Bytes accessed per row activation
system.mem_ctrls.dram.bytesPerActivate::0-127         4655      1.43%      1.43% # Bytes accessed per row activation
system.mem_ctrls.dram.bytesPerActivate::128-255        13176      4.04%      5.46% # Bytes accessed per row activation
system.mem_ctrls.dram.bytesPerActivate::256-383         6632      2.03%      7.49% # Bytes accessed per row activation
system.mem_ctrls.dram.bytesPerActivate::384-511        20201      6.19%     13.68% # Bytes accessed per row activation
system.mem_ctrls.dram.bytesPerActivate::512-639        24217      7.42%     21.10% # Bytes accessed per row activation
system.mem_ctrls.dram.bytesPerActivate::640-767         8303      2.54%     23.64% # Bytes accessed per row activation
system.mem_ctrls.dram.bytesPerActivate::768-895        13993      4.29%     27.93% # Bytes accessed per row activation
system.mem_ctrls.dram.bytesPerActivate::896-1023         9732      2.98%     30.91% # Bytes accessed per row activation
system.mem_ctrls.dram.bytesPerActivate::1024-1151       225565     69.09%    100.00% # Bytes accessed per row activation
system.mem_ctrls.dram.bytesPerActivate::total       326474                       # Bytes accessed per row activation
system.mem_ctrls.dram.bytesRead             190457920                       # Total number of bytes read from DRAM
system.mem_ctrls.dram.bytesWritten           93102080                       # Total number of bytes written to DRAM
system.mem_ctrls.dram.avgRdBW              679.418660                       # Average DRAM read bandwidth in MiBytes/s
system.mem_ctrls.dram.avgWrBW              332.122132                       # Average DRAM write bandwidth in MiBytes/s
system.mem_ctrls.dram.peakBW                 12800.00                       # Theoretical peak bandwidth in MiByte/s
system.mem_ctrls.dram.busUtil                    7.90                       # Data bus utilization in percentage
system.mem_ctrls.dram.busUtilRead                5.31                       # Data bus utilization in percentage for reads
system.mem_ctrls.dram.busUtilWrite               2.59                       # Data bus utilization in percentage for writes
system.mem_ctrls.dram.pageHitRate               92.63                       # Row buffer hit rate, read and write combined
system.mem_ctrls.dram.power_state.pwrStateResidencyTicks::UNDEFINED 280324829500                       # Cumulative time (in ticks) in various power states
system.mem_ctrls.dram.rank0.actEnergy      1166069100                       # Energy for activate commands per rank (pJ)
system.mem_ctrls.dram.rank0.preEnergy       619776630                       # Energy for precharge commands per rank (pJ)
system.mem_ctrls.dram.rank0.readEnergy    10628468340                       # Energy for read commands per rank (pJ)
system.mem_ctrls.dram.rank0.writeEnergy    3798270360                       # Energy for write commands per rank (pJ)
system.mem_ctrls.dram.rank0.refreshEnergy 22128269280.000004                       # Energy for refresh commands per rank (pJ)
system.mem_ctrls.dram.rank0.actBackEnergy  65359431330                       # Energy for active background per rank (pJ)
system.mem_ctrls.dram.rank0.preBackEnergy  52605213600                       # Energy for precharge background per rank (pJ)
system.mem_ctrls.dram.rank0.actPowerDownEnergy            0                       # Energy for active power-down per rank (pJ)
system.mem_ctrls.dram.rank0.prePowerDownEnergy            0                       # Energy for precharge power-down per rank (pJ)
system.mem_ctrls.dram.rank0.selfRefreshEnergy            0                       # Energy for self refresh per rank (pJ)
system.mem_ctrls.dram.rank0.totalEnergy  156305498640                       # Total energy per rank (pJ)
system.mem_ctrls.dram.rank0.averagePower   557.587064                       # Core power per rank (mW)
system.mem_ctrls.dram.rank0.totalIdleTime            0                       # Total Idle time Per DRAM Rank
system.mem_ctrls.dram.rank0.pwrStateTime::IDLE 134838209000                       # Time in different power states
system.mem_ctrls.dram.rank0.pwrStateTime::REF   9360520000                       # Time in different power states
system.mem_ctrls.dram.rank0.pwrStateTime::SREF            0                       # Time in different power states
system.mem_ctrls.dram.rank0.pwrStateTime::PRE_PDN            0                       # Time in different power states
system.mem_ctrls.dram.rank0.pwrStateTime::ACT 136126100500                       # Time in different power states
system.mem_ctrls.dram.rank0.pwrStateTime::ACT_PDN            0                       # Time in different power states
system.mem_ctrls.dram.rank1.actEnergy      1164969540                       # Energy for activate commands per rank (pJ)
system.mem_ctrls.dram.rank1.preEnergy       619192200                       # Energy for precharge commands per rank (pJ)
system.mem_ctrls.dram.rank1.readEnergy    10619493360                       # Energy for read commands per rank (pJ)
system.mem_ctrls.dram.rank1.writeEnergy    3795368040                       # Energy for write commands per rank (pJ)
system.mem_ctrls.dram.rank1.refreshEnergy 22128269280.000004                       # Energy for refresh commands per rank (pJ)
system.mem_ctrls.dram.rank1.actBackEnergy  65308133040                       # Energy for active background per rank (pJ)
system.mem_ctrls.dram.rank1.preBackEnergy  52648412160                       # Energy for precharge background per rank (pJ)
system.mem_ctrls.dram.rank1.actPowerDownEnergy            0                       # Energy for active power-down per rank (pJ)
system.mem_ctrls.dram.rank1.prePowerDownEnergy            0                       # Energy for precharge power-down per rank (pJ)
system.mem_ctrls.dram.rank1.selfRefreshEnergy            0                       # Energy for self refresh per rank (pJ)
system.mem_ctrls.dram.rank1.totalEnergy  156283837620                       # Total energy per rank (pJ)
system.mem_ctrls.dram.rank1.averagePower   557.509793                       # Core power per rank (mW)
system.mem_ctrls.dram.rank1.totalIdleTime            0                       # Total Idle time Per DRAM Rank
system.mem_ctrls.dram.rank1.pwrStateTime::IDLE 134951942500                       # Time in different power states
system.mem_ctrls.dram.rank1.pwrStateTime::REF   9360520000                       # Time in different power states
system.mem_ctrls.dram.rank1.pwrStateTime::SREF            0                       # Time in different power states
system.mem_ctrls.dram.rank1.pwrStateTime::PRE_PDN            0                       # Time in different power states
system.mem_ctrls.dram.rank1.pwrStateTime::ACT 136012367000                       # Time in different power states
system.mem_ctrls.dram.rank1.pwrStateTime::ACT_PDN            0                       # Time in different power states
system.mem_ctrls.power_state.pwrStateResidencyTicks::UNDEFINED 280324829500                       # Cumulative time (in ticks) in various power states
system.membus.trans_dist::ReadResp                930                       # Transaction distribution
system.membus.trans_dist::WritebackDirty      2909463                       # Transaction distribution
system.membus.trans_dist::CleanEvict              332                       # Transaction distribution
system.membus.trans_dist::ReadExReq           2974975                       # Transaction distribution
system.membus.trans_dist::ReadExResp          2974975                       # Transaction distribution
system.membus.trans_dist::ReadSharedReq           930                       # Transaction distribution
system.membus.pkt_count_system.l2.mem_side_port::system.mem_ctrls.port      8861605                       # Packet count per connected requestor and responder (bytes)
system.membus.pkt_count::total                8861605                       # Packet count per connected requestor and responder (bytes)
system.membus.pkt_size_system.l2.mem_side_port::system.mem_ctrls.port    188331776                       # Cumulative packet size per connected requestor and responder (bytes)
system.membus.pkt_size::total               188331776                       # Cumulative packet size per connected requestor and responder (bytes)
system.membus.snoops                                0                       # Total snoops (count)
system.membus.snoopTraffic                          0                       # Total snoop traffic (bytes)
system.membus.snoop_fanout::samples           2975905                       # Request fanout histogram
system.membus.snoop_fanout::mean                    0                       # Request fanout histogram
system.membus.snoop_fanout::stdev                   0                       # Request fanout histogram
system.membus.snoop_fanout::underflows              0      0.00%      0.00% # Request fanout histogram
system.membus.snoop_fanout::0                 2975905    100.00%    100.00% # Request fanout histogram
system.membus.snoop_fanout::1                       0      0.00%    100.00% # Request fanout histogram
system.membus.snoop_fanout::overflows               0      0.00%    100.00% # Request fanout histogram
system.membus.snoop_fanout::min_value               0                       # Request fanout histogram
system.membus.snoop_fanout::max_value               0                       # Request fanout histogram
system.membus.snoop_fanout::total             2975905                       # Request fanout histogram
system.membus.power_state.pwrStateResidencyTicks::UNDEFINED 280324829500                       # Cumulative time (in ticks) in various power states
system.membus.reqLayer0.occupancy         11711727500                       # Layer occupancy (ticks)
system.membus.reqLayer0.utilization               4.2                       # Layer utilization (%)
system.membus.respLayer1.occupancy         9710559000                       # Layer occupancy (ticks)
system.membus.respLayer1.utilization              3.5                       # Layer utilization (%)
system.tol2bus.trans_dist::ReadResp              1023                       # Transaction distribution
system.tol2bus.trans_dist::WritebackDirty      5882417                       # Transaction distribution
system.tol2bus.trans_dist::WritebackClean          283                       # Transaction distribution
system.tol2bus.trans_dist::CleanEvict            1047                       # Transaction distribution
system.tol2bus.trans_dist::ReadExReq          2974975                       # Transaction distribution
system.tol2bus.trans_dist::ReadExResp         2974975                       # Transaction distribution
system.tol2bus.trans_dist::ReadCleanReq           855                       # Transaction distribution
system.tol2bus.trans_dist::ReadSharedReq          168                       # Transaction distribution
system.tol2bus.pkt_count_system.cpu.icache.mem_side_port::system.l2.cpu_side_port         1993                       # Packet count per connected requestor and responder (bytes)
system.tol2bus.pkt_count_system.cpu.dcache.mem_side_port::system.l2.cpu_side_port      8923381                       # Packet count per connected requestor and responder (bytes)
system.tol2bus.pkt_count::total               8925374                       # Packet count per connected requestor and responder (bytes)
system.tol2bus.pkt_size_system.cpu.icache.mem_side_port::system.l2.cpu_side_port        36416                       # Cumulative packet size per connected requestor and responder (bytes)
system.tol2bus.pkt_size_system.cpu.dcache.mem_side_port::system.l2.cpu_side_port    190339104                       # Cumulative packet size per connected requestor and responder (bytes)
system.tol2bus.pkt_size::total              190375520                       # Cumulative packet size per connected requestor and responder (bytes)
system.tol2bus.snoops                         2910369                       # Total snoops (count)
system.tol2bus.snoopTraffic                  93102816                       # Total snoop traffic (bytes)
system.tol2bus.snoop_fanout::samples          5886367                       # Request fanout histogram
system.tol2bus.snoop_fanout::mean            0.000102                       # Request fanout histogram
system.tol2bus.snoop_fanout::stdev           0.010121                       # Request fanout histogram
system.tol2bus.snoop_fanout::underflows             0      0.00%      0.00% # Request fanout histogram
system.tol2bus.snoop_fanout::0                5885767     99.99%     99.99% # Request fanout histogram
system.tol2bus.snoop_fanout::1                    599      0.01%    100.00% # Request fanout histogram
system.tol2bus.snoop_fanout::2                      1      0.00%    100.00% # Request fanout histogram
system.tol2bus.snoop_fanout::overflows              0      0.00%    100.00% # Request fanout histogram
system.tol2bus.snoop_fanout::min_value              0                       # Request fanout histogram
system.tol2bus.snoop_fanout::max_value              2                       # Request fanout histogram
system.tol2bus.snoop_fanout::total            5886367                       # Request fanout histogram
system.tol2bus.power_state.pwrStateResidencyTicks::UNDEFINED 280324829500                       # Cumulative time (in ticks) in various power states
system.tol2bus.reqLayer0.occupancy         4461306500                       # Layer occupancy (ticks)
system.tol2bus.reqLayer0.utilization              1.6                       # Layer utilization (%)
system.tol2bus.respLayer0.occupancy            855000                       # Layer occupancy (ticks)
system.tol2bus.respLayer0.utilization             0.0                       # Layer utilization (%)
system.tol2bus.respLayer1.occupancy        2975145495                       # Layer occupancy (ticks)
system.tol2bus.respLayer1.utilization             1.1                       # Layer utilization (%)
system.voltage_domain.voltage                       1                       # Voltage in Volts

---------- End Simulation Statistics   ----------
