
---------- Begin Simulation Statistics ----------
final_tick                                83847361000                       # Number of ticks from beginning of simulation (restored from checkpoints and never reset)
host_inst_rate                                 271210                       # Simulator instruction rate (inst/s)
host_mem_usage                                 726788                       # Number of bytes of host memory used
host_op_rate                                   271751                       # Simulator op (including micro ops) rate (op/s)
host_seconds                                   368.72                       # Real time elapsed on the host
host_tick_rate                              227402226                       # Simulator tick rate (ticks/s)
sim_freq                                 1000000000000                       # Frequency of simulated ticks
sim_insts                                   100000000                       # Number of instructions simulated
sim_ops                                     100199496                       # Number of ops (including micro ops) simulated
sim_seconds                                  0.083847                       # Number of seconds simulated
sim_ticks                                 83847361000                       # Number of ticks simulated
system.cpu.committedInsts                   100000000                       # Number of instructions committed
system.cpu.committedOps                     100199496                       # Number of ops (including micro ops) committed
system.cpu.cpi                               1.676947                       # CPI: cycles per instruction
system.cpu.discardedOps                        197523                       # Number of ops (including micro ops) which were discarded before commit
system.cpu.idleCycles                        34755029                       # Total number of cycles that the object has spent stopped
system.cpu.ipc                               0.596322                       # IPC: instructions per cycle
system.cpu.numCycles                        167694722                       # number of cpu cycles simulated
system.cpu.numFetchSuspends                         0                       # Number of times Execute suspended instruction fetching
system.cpu.numWorkItemsCompleted                    0                       # number of work items this cpu completed
system.cpu.numWorkItemsStarted                      0                       # number of work items this cpu started
system.cpu.op_class_0::No_OpClass                   0      0.00%      0.00% # Class of committed instruction
system.cpu.op_class_0::IntAlu                46438739     46.35%     46.35% # Class of committed instruction
system.cpu.op_class_0::IntMult                  20720      0.02%     46.37% # Class of committed instruction
system.cpu.op_class_0::IntDiv                       0      0.00%     46.37% # Class of committed instruction
system.cpu.op_class_0::FloatAdd                     0      0.00%     46.37% # Class of committed instruction
system.cpu.op_class_0::FloatCmp                     0      0.00%     46.37% # Class of committed instruction
system.cpu.op_class_0::FloatCvt                     0      0.00%     46.37% # Class of committed instruction
system.cpu.op_class_0::FloatMult                    0      0.00%     46.37% # Class of committed instruction
system.cpu.op_class_0::FloatMultAcc                 0      0.00%     46.37% # Class of committed instruction
system.cpu.op_class_0::FloatDiv                     0      0.00%     46.37% # Class of committed instruction
system.cpu.op_class_0::FloatMisc                    0      0.00%     46.37% # Class of committed instruction
system.cpu.op_class_0::FloatSqrt                    0      0.00%     46.37% # Class of committed instruction
system.cpu.op_class_0::SimdAdd                      0      0.00%     46.37% # Class of committed instruction
system.cpu.op_class_0::SimdAddAcc                   0      0.00%     46.37% # Class of committed instruction
system.cpu.op_class_0::SimdAlu                      0      0.00%     46.37% # Class of committed instruction
system.cpu.op_class_0::SimdCmp                      0      0.00%     46.37% # Class of committed instruction
system.cpu.op_class_0::SimdCvt                      0      0.00%     46.37% # Class of committed instruction
system.cpu.op_class_0::SimdMisc                     0      0.00%     46.37% # Class of committed instruction
system.cpu.op_class_0::SimdMult                     0      0.00%     46.37% # Class of committed instruction
system.cpu.op_class_0::SimdMultAcc                  0      0.00%     46.37% # Class of committed instruction
system.cpu.op_class_0::SimdShift                    0      0.00%     46.37% # Class of committed instruction
system.cpu.op_class_0::SimdShiftAcc                 0      0.00%     46.37% # Class of committed instruction
system.cpu.op_class_0::SimdDiv                      0      0.00%     46.37% # Class of committed instruction
system.cpu.op_class_0::SimdSqrt                     0      0.00%     46.37% # Class of committed instruction
system.cpu.op_class_0::SimdFloatAdd                 0      0.00%     46.37% # Class of committed instruction
system.cpu.op_class_0::SimdFloatAlu                 0      0.00%     46.37% # Class of committed instruction
system.cpu.op_class_0::SimdFloatCmp                 0      0.00%     46.37% # Class of committed instruction
system.cpu.op_class_0::SimdFloatCvt                 0      0.00%     46.37% # Class of committed instruction
system.cpu.op_class_0::SimdFloatDiv                 0      0.00%     46.37% # Class of committed instruction
system.cpu.op_class_0::SimdFloatMisc                1      0.00%     46.37% # Class of committed instruction
system.cpu.op_class_0::SimdFloatMult                0      0.00%     46.37% # Class of committed instruction
system.cpu.op_class_0::SimdFloatMultAcc             0      0.00%     46.37% # Class of committed instruction
system.cpu.op_class_0::SimdFloatSqrt                0      0.00%     46.37% # Class of committed instruction
system.cpu.op_class_0::SimdReduceAdd                0      0.00%     46.37% # Class of committed instruction
system.cpu.op_class_0::SimdReduceAlu                0      0.00%     46.37% # Class of committed instruction
system.cpu.op_class_0::SimdReduceCmp                0      0.00%     46.37% # Class of committed instruction
system.cpu.op_class_0::SimdFloatReduceAdd            0      0.00%     46.37% # Class of committed instruction
system.cpu.op_class_0::SimdFloatReduceCmp            0      0.00%     46.37% # Class of committed instruction
system.cpu.op_class_0::SimdAes                      0      0.00%     46.37% # Class of committed instruction
system.cpu.op_class_0::SimdAesMix                   0      0.00%     46.37% # Class of committed instruction
system.cpu.op_class_0::SimdSha1Hash                 0      0.00%     46.37% # Class of committed instruction
system.cpu.op_class_0::SimdSha1Hash2                0      0.00%     46.37% # Class of committed instruction
system.cpu.op_class_0::SimdSha256Hash               0      0.00%     46.37% # Class of committed instruction
system.cpu.op_class_0::SimdSha256Hash2              0      0.00%     46.37% # Class of committed instruction
system.cpu.op_class_0::SimdShaSigma2                0      0.00%     46.37% # Class of committed instruction
system.cpu.op_class_0::SimdShaSigma3                0      0.00%     46.37% # Class of committed instruction
system.cpu.op_class_0::SimdPredAlu                  0      0.00%     46.37% # Class of committed instruction
system.cpu.op_class_0::MemRead               42753845     42.67%     89.04% # Class of committed instruction
system.cpu.op_class_0::MemWrite              10986191     10.96%    100.00% # Class of committed instruction
system.cpu.op_class_0::FloatMemRead                 0      0.00%    100.00% # Class of committed instruction
system.cpu.op_class_0::FloatMemWrite                0      0.00%    100.00% # Class of committed instruction
system.cpu.op_class_0::IprAccess                    0      0.00%    100.00% # Class of committed instruction
system.cpu.op_class_0::InstPrefetch                 0      0.00%    100.00% # Class of committed instruction
system.cpu.op_class_0::total                100199496                       # Class of committed instruction
system.cpu.tickCycles                       132939693                       # Number of cycles that the object actually ticked
system.cpu.workload.numSyscalls                    85                       # Number of system calls
system.membus.snoop_filter.hit_multi_requests            0                       # Number of requests hitting in the snoop filter with multiple (>1) holders of the requested data.
system.membus.snoop_filter.hit_multi_snoops            0                       # Number of snoops hitting in the snoop filter with multiple (>1) holders of the requested data.
system.membus.snoop_filter.hit_single_requests       168905                       # Number of requests hitting in the snoop filter with a single holder of the requested data.
system.membus.snoop_filter.hit_single_snoops            0                       # Number of snoops hitting in the snoop filter with a single holder of the requested data.
system.membus.snoop_filter.tot_requests        370911                       # Total number of requests made to the snoop filter.
system.membus.snoop_filter.tot_snoops               0                       # Total number of snoops made to the snoop filter.
system.tol2bus.snoop_filter.hit_multi_requests          198                       # Number of requests hitting in the snoop filter with multiple (>1) holders of the requested data.
system.tol2bus.snoop_filter.hit_multi_snoops            0                       # Number of snoops hitting in the snoop filter with multiple (>1) holders of the requested data.
system.tol2bus.snoop_filter.hit_single_requests       683925                       # Number of requests hitting in the snoop filter with a single holder of the requested data.
system.tol2bus.snoop_filter.hit_single_snoops          476                       # Number of snoops hitting in the snoop filter with a single holder of the requested data.
system.tol2bus.snoop_filter.tot_requests      1369313                       # Total number of requests made to the snoop filter.
system.tol2bus.snoop_filter.tot_snoops            476                       # Total number of snoops made to the snoop filter.
system.clk_domain.clock                          1000                       # Clock period in ticks
system.cpu.branchPred.lookups                 4397368                       # Number of BP lookups
system.cpu.branchPred.condPredicted           3642728                       # Number of conditional branches predicted
system.cpu.branchPred.condIncorrect             83181                       # Number of conditional branches incorrect
system.cpu.branchPred.BTBLookups              2112893                       # Number of BTB lookups
system.cpu.branchPred.BTBHits                 2110693                       # Number of BTB hits
system.cpu.branchPred.BTBHitPct             99.895877                       # BTB Hit Percentage
system.cpu.branchPred.RASUsed                   66041                       # Number of times the RAS was used to get a target.
system.cpu.branchPred.RASIncorrect                 15                       # Number of incorrect RAS predictions.
system.cpu.branchPred.indirectLookups             682                       # Number of indirect predictor lookups.
system.cpu.branchPred.indirectHits                295                       # Number of indirect target hits.
system.cpu.branchPred.indirectMisses              387                       # Number of indirect misses.
system.cpu.branchPred.indirectMispredicted          165                       # Number of mispredicted indirect branches.
system.cpu.dcache.demand_hits::.cpu.data     51414446                       # number of demand (read+write) hits
system.cpu.dcache.demand_hits::total         51414446                       # number of demand (read+write) hits
system.cpu.dcache.overall_hits::.cpu.data     51414949                       # number of overall hits
system.cpu.dcache.overall_hits::total        51414949                       # number of overall hits
system.cpu.dcache.demand_misses::.cpu.data       737425                       # number of demand (read+write) misses
system.cpu.dcache.demand_misses::total         737425                       # number of demand (read+write) misses
system.cpu.dcache.overall_misses::.cpu.data       745341                       # number of overall misses
system.cpu.dcache.overall_misses::total        745341                       # number of overall misses
system.cpu.dcache.demand_miss_latency::.cpu.data  24726436500                       # number of demand (read+write) miss cycles
system.cpu.dcache.demand_miss_latency::total  24726436500                       # number of demand (read+write) miss cycles
system.cpu.dcache.overall_miss_latency::.cpu.data  24726436500                       # number of overall miss cycles
system.cpu.dcache.overall_miss_latency::total  24726436500                       # number of overall miss cycles
system.cpu.dcache.demand_accesses::.cpu.data     52151871                       # number of demand (read+write) accesses
system.cpu.dcache.demand_accesses::total     52151871                       # number of demand (read+write) accesses
system.cpu.dcache.overall_accesses::.cpu.data     52160290                       # number of overall (read+write) accesses
system.cpu.dcache.overall_accesses::total     52160290                       # number of overall (read+write) accesses
system.cpu.dcache.demand_miss_rate::.cpu.data     0.014140                       # miss rate for demand accesses
system.cpu.dcache.demand_miss_rate::total     0.014140                       # miss rate for demand accesses
system.cpu.dcache.overall_miss_rate::.cpu.data     0.014289                       # miss rate for overall accesses
system.cpu.dcache.overall_miss_rate::total     0.014289                       # miss rate for overall accesses
system.cpu.dcache.demand_avg_miss_latency::.cpu.data 33530.781435                       # average overall miss latency
system.cpu.dcache.demand_avg_miss_latency::total 33530.781435                       # average overall miss latency
system.cpu.dcache.overall_avg_miss_latency::.cpu.data 33174.663007                       # average overall miss latency
system.cpu.dcache.overall_avg_miss_latency::total 33174.663007                       # average overall miss latency
system.cpu.dcache.blocked_cycles::no_mshrs       216026                       # number of cycles access was blocked
system.cpu.dcache.blocked_cycles::no_targets            0                       # number of cycles access was blocked
system.cpu.dcache.blocked::no_mshrs              3278                       # number of cycles access was blocked
system.cpu.dcache.blocked::no_targets               0                       # number of cycles access was blocked
system.cpu.dcache.avg_blocked_cycles::no_mshrs    65.901769                       # average number of cycles each access was blocked
system.cpu.dcache.avg_blocked_cycles::no_targets          nan                       # average number of cycles each access was blocked
system.cpu.dcache.writebacks::.writebacks       607463                       # number of writebacks
system.cpu.dcache.writebacks::total            607463                       # number of writebacks
system.cpu.dcache.demand_mshr_hits::.cpu.data        60715                       # number of demand (read+write) MSHR hits
system.cpu.dcache.demand_mshr_hits::total        60715                       # number of demand (read+write) MSHR hits
system.cpu.dcache.overall_mshr_hits::.cpu.data        60715                       # number of overall MSHR hits
system.cpu.dcache.overall_mshr_hits::total        60715                       # number of overall MSHR hits
system.cpu.dcache.demand_mshr_misses::.cpu.data       676710                       # number of demand (read+write) MSHR misses
system.cpu.dcache.demand_mshr_misses::total       676710                       # number of demand (read+write) MSHR misses
system.cpu.dcache.overall_mshr_misses::.cpu.data       684619                       # number of overall MSHR misses
system.cpu.dcache.overall_mshr_misses::total       684619                       # number of overall MSHR misses
system.cpu.dcache.demand_mshr_miss_latency::.cpu.data  22440344500                       # number of demand (read+write) MSHR miss cycles
system.cpu.dcache.demand_mshr_miss_latency::total  22440344500                       # number of demand (read+write) MSHR miss cycles
system.cpu.dcache.overall_mshr_miss_latency::.cpu.data  23135555999                       # number of overall MSHR miss cycles
system.cpu.dcache.overall_mshr_miss_latency::total  23135555999                       # number of overall MSHR miss cycles
system.cpu.dcache.demand_mshr_miss_rate::.cpu.data     0.012976                       # mshr miss rate for demand accesses
system.cpu.dcache.demand_mshr_miss_rate::total     0.012976                       # mshr miss rate for demand accesses
system.cpu.dcache.overall_mshr_miss_rate::.cpu.data     0.013125                       # mshr miss rate for overall accesses
system.cpu.dcache.overall_mshr_miss_rate::total     0.013125                       # mshr miss rate for overall accesses
system.cpu.dcache.demand_avg_mshr_miss_latency::.cpu.data 33160.947082                       # average overall mshr miss latency
system.cpu.dcache.demand_avg_mshr_miss_latency::total 33160.947082                       # average overall mshr miss latency
system.cpu.dcache.overall_avg_mshr_miss_latency::.cpu.data 33793.330303                       # average overall mshr miss latency
system.cpu.dcache.overall_avg_mshr_miss_latency::total 33793.330303                       # average overall mshr miss latency
system.cpu.dcache.replacements                 683598                       # number of replacements
system.cpu.dcache.ReadReq_hits::.cpu.data     40784870                       # number of ReadReq hits
system.cpu.dcache.ReadReq_hits::total        40784870                       # number of ReadReq hits
system.cpu.dcache.ReadReq_misses::.cpu.data       389946                       # number of ReadReq misses
system.cpu.dcache.ReadReq_misses::total        389946                       # number of ReadReq misses
system.cpu.dcache.ReadReq_miss_latency::.cpu.data   9008402000                       # number of ReadReq miss cycles
system.cpu.dcache.ReadReq_miss_latency::total   9008402000                       # number of ReadReq miss cycles
system.cpu.dcache.ReadReq_accesses::.cpu.data     41174816                       # number of ReadReq accesses(hits+misses)
system.cpu.dcache.ReadReq_accesses::total     41174816                       # number of ReadReq accesses(hits+misses)
system.cpu.dcache.ReadReq_miss_rate::.cpu.data     0.009470                       # miss rate for ReadReq accesses
system.cpu.dcache.ReadReq_miss_rate::total     0.009470                       # miss rate for ReadReq accesses
system.cpu.dcache.ReadReq_avg_miss_latency::.cpu.data 23101.665359                       # average ReadReq miss latency
system.cpu.dcache.ReadReq_avg_miss_latency::total 23101.665359                       # average ReadReq miss latency
system.cpu.dcache.ReadReq_mshr_hits::.cpu.data          557                       # number of ReadReq MSHR hits
system.cpu.dcache.ReadReq_mshr_hits::total          557                       # number of ReadReq MSHR hits
system.cpu.dcache.ReadReq_mshr_misses::.cpu.data       389389                       # number of ReadReq MSHR misses
system.cpu.dcache.ReadReq_mshr_misses::total       389389                       # number of ReadReq MSHR misses
system.cpu.dcache.ReadReq_mshr_miss_latency::.cpu.data   8596197500                       # number of ReadReq MSHR miss cycles
system.cpu.dcache.ReadReq_mshr_miss_latency::total   8596197500                       # number of ReadReq MSHR miss cycles
system.cpu.dcache.ReadReq_mshr_miss_rate::.cpu.data     0.009457                       # mshr miss rate for ReadReq accesses
system.cpu.dcache.ReadReq_mshr_miss_rate::total     0.009457                       # mshr miss rate for ReadReq accesses
system.cpu.dcache.ReadReq_avg_mshr_miss_latency::.cpu.data 22076.117969                       # average ReadReq mshr miss latency
system.cpu.dcache.ReadReq_avg_mshr_miss_latency::total 22076.117969                       # average ReadReq mshr miss latency
system.cpu.dcache.WriteReq_hits::.cpu.data     10629576                       # number of WriteReq hits
system.cpu.dcache.WriteReq_hits::total       10629576                       # number of WriteReq hits
system.cpu.dcache.WriteReq_misses::.cpu.data       347479                       # number of WriteReq misses
system.cpu.dcache.WriteReq_misses::total       347479                       # number of WriteReq misses
system.cpu.dcache.WriteReq_miss_latency::.cpu.data  15718034500                       # number of WriteReq miss cycles
system.cpu.dcache.WriteReq_miss_latency::total  15718034500                       # number of WriteReq miss cycles
system.cpu.dcache.WriteReq_accesses::.cpu.data     10977055                       # number of WriteReq accesses(hits+misses)
system.cpu.dcache.WriteReq_accesses::total     10977055                       # number of WriteReq accesses(hits+misses)
system.cpu.dcache.WriteReq_miss_rate::.cpu.data     0.031655                       # miss rate for WriteReq accesses
system.cpu.dcache.WriteReq_miss_rate::total     0.031655                       # miss rate for WriteReq accesses
system.cpu.dcache.WriteReq_avg_miss_latency::.cpu.data 45234.487552                       # average WriteReq miss latency
system.cpu.dcache.WriteReq_avg_miss_latency::total 45234.487552                       # average WriteReq miss latency
system.cpu.dcache.WriteReq_mshr_hits::.cpu.data        60158                       # number of WriteReq MSHR hits
system.cpu.dcache.WriteReq_mshr_hits::total        60158                       # number of WriteReq MSHR hits
system.cpu.dcache.WriteReq_mshr_misses::.cpu.data       287321                       # number of WriteReq MSHR misses
system.cpu.dcache.WriteReq_mshr_misses::total       287321                       # number of WriteReq MSHR misses
system.cpu.dcache.WriteReq_mshr_miss_latency::.cpu.data  13844147000                       # number of WriteReq MSHR miss cycles
system.cpu.dcache.WriteReq_mshr_miss_latency::total  13844147000                       # number of WriteReq MSHR miss cycles
system.cpu.dcache.WriteReq_mshr_miss_rate::.cpu.data     0.026175                       # mshr miss rate for WriteReq accesses
system.cpu.dcache.WriteReq_mshr_miss_rate::total     0.026175                       # mshr miss rate for WriteReq accesses
system.cpu.dcache.WriteReq_avg_mshr_miss_latency::.cpu.data 48183.554282                       # average WriteReq mshr miss latency
system.cpu.dcache.WriteReq_avg_mshr_miss_latency::total 48183.554282                       # average WriteReq mshr miss latency
system.cpu.dcache.SoftPFReq_hits::.cpu.data          503                       # number of SoftPFReq hits
system.cpu.dcache.SoftPFReq_hits::total           503                       # number of SoftPFReq hits
system.cpu.dcache.SoftPFReq_misses::.cpu.data         7916                       # number of SoftPFReq misses
system.cpu.dcache.SoftPFReq_misses::total         7916                       # number of SoftPFReq misses
system.cpu.dcache.SoftPFReq_accesses::.cpu.data         8419                       # number of SoftPFReq accesses(hits+misses)
system.cpu.dcache.SoftPFReq_accesses::total         8419                       # number of SoftPFReq accesses(hits+misses)
system.cpu.dcache.SoftPFReq_miss_rate::.cpu.data     0.940254                       # miss rate for SoftPFReq accesses
system.cpu.dcache.SoftPFReq_miss_rate::total     0.940254                       # miss rate for SoftPFReq accesses
system.cpu.dcache.SoftPFReq_mshr_misses::.cpu.data         7909                       # number of SoftPFReq MSHR misses
system.cpu.dcache.SoftPFReq_mshr_misses::total         7909                       # number of SoftPFReq MSHR misses
system.cpu.dcache.SoftPFReq_mshr_miss_latency::.cpu.data    695211499                       # number of SoftPFReq MSHR miss cycles
system.cpu.dcache.SoftPFReq_mshr_miss_latency::total    695211499                       # number of SoftPFReq MSHR miss cycles
system.cpu.dcache.SoftPFReq_mshr_miss_rate::.cpu.data     0.939423                       # mshr miss rate for SoftPFReq accesses
system.cpu.dcache.SoftPFReq_mshr_miss_rate::total     0.939423                       # mshr miss rate for SoftPFReq accesses
system.cpu.dcache.SoftPFReq_avg_mshr_miss_latency::.cpu.data 87901.314831                       # average SoftPFReq mshr miss latency
system.cpu.dcache.SoftPFReq_avg_mshr_miss_latency::total 87901.314831                       # average SoftPFReq mshr miss latency
system.cpu.dcache.LoadLockedReq_hits::.cpu.data           34                       # number of LoadLockedReq hits
system.cpu.dcache.LoadLockedReq_hits::total           34                       # number of LoadLockedReq hits
system.cpu.dcache.LoadLockedReq_misses::.cpu.data            4                       # number of LoadLockedReq misses
system.cpu.dcache.LoadLockedReq_misses::total            4                       # number of LoadLockedReq misses
system.cpu.dcache.LoadLockedReq_miss_latency::.cpu.data       244500                       # number of LoadLockedReq miss cycles
system.cpu.dcache.LoadLockedReq_miss_latency::total       244500                       # number of LoadLockedReq miss cycles
system.cpu.dcache.LoadLockedReq_accesses::.cpu.data           38                       # number of LoadLockedReq accesses(hits+misses)
system.cpu.dcache.LoadLockedReq_accesses::total           38                       # number of LoadLockedReq accesses(hits+misses)
system.cpu.dcache.LoadLockedReq_miss_rate::.cpu.data     0.105263                       # miss rate for LoadLockedReq accesses
system.cpu.dcache.LoadLockedReq_miss_rate::total     0.105263                       # miss rate for LoadLockedReq accesses
system.cpu.dcache.LoadLockedReq_avg_miss_latency::.cpu.data        61125                       # average LoadLockedReq miss latency
system.cpu.dcache.LoadLockedReq_avg_miss_latency::total        61125                       # average LoadLockedReq miss latency
system.cpu.dcache.LoadLockedReq_mshr_misses::.cpu.data            4                       # number of LoadLockedReq MSHR misses
system.cpu.dcache.LoadLockedReq_mshr_misses::total            4                       # number of LoadLockedReq MSHR misses
system.cpu.dcache.LoadLockedReq_mshr_miss_latency::.cpu.data       240500                       # number of LoadLockedReq MSHR miss cycles
system.cpu.dcache.LoadLockedReq_mshr_miss_latency::total       240500                       # number of LoadLockedReq MSHR miss cycles
system.cpu.dcache.LoadLockedReq_mshr_miss_rate::.cpu.data     0.105263                       # mshr miss rate for LoadLockedReq accesses
system.cpu.dcache.LoadLockedReq_mshr_miss_rate::total     0.105263                       # mshr miss rate for LoadLockedReq accesses
system.cpu.dcache.LoadLockedReq_avg_mshr_miss_latency::.cpu.data        60125                       # average LoadLockedReq mshr miss latency
system.cpu.dcache.LoadLockedReq_avg_mshr_miss_latency::total        60125                       # average LoadLockedReq mshr miss latency
system.cpu.dcache.StoreCondReq_hits::.cpu.data           38                       # number of StoreCondReq hits
system.cpu.dcache.StoreCondReq_hits::total           38                       # number of StoreCondReq hits
system.cpu.dcache.StoreCondReq_accesses::.cpu.data           38                       # number of StoreCondReq accesses(hits+misses)
system.cpu.dcache.StoreCondReq_accesses::total           38                       # number of StoreCondReq accesses(hits+misses)
system.cpu.dcache.power_state.pwrStateResidencyTicks::UNDEFINED  83847361000                       # Cumulative time (in ticks) in various power states
system.cpu.dcache.tags.tagsinuse          1007.712682                       # Cycle average of tags in use
system.cpu.dcache.tags.total_refs            52099643                       # Total number of references to valid blocks.
system.cpu.dcache.tags.sampled_refs            684622                       # Sample count of references to valid blocks.
system.cpu.dcache.tags.avg_refs             76.099867                       # Average number of references to valid blocks.
system.cpu.dcache.tags.warmup_cycle            176500                       # Cycle when the warmup percentage was hit.
system.cpu.dcache.tags.occ_blocks::.cpu.data  1007.712682                       # Average occupied blocks per requestor
system.cpu.dcache.tags.occ_percent::.cpu.data     0.984094                       # Average percentage of cache occupancy
system.cpu.dcache.tags.occ_percent::total     0.984094                       # Average percentage of cache occupancy
system.cpu.dcache.tags.occ_task_id_blocks::1024         1024                       # Occupied blocks per task id
system.cpu.dcache.tags.age_task_id_blocks_1024::0          204                       # Occupied blocks per task id
system.cpu.dcache.tags.age_task_id_blocks_1024::1          307                       # Occupied blocks per task id
system.cpu.dcache.tags.age_task_id_blocks_1024::2          510                       # Occupied blocks per task id
system.cpu.dcache.tags.age_task_id_blocks_1024::3            3                       # Occupied blocks per task id
system.cpu.dcache.tags.occ_task_id_percent::1024            1                       # Percentage of cache occupancy per task id
system.cpu.dcache.tags.tag_accesses         105005354                       # Number of tag accesses
system.cpu.dcache.tags.data_accesses        105005354                       # Number of data accesses
system.cpu.dcache.tags.power_state.pwrStateResidencyTicks::UNDEFINED  83847361000                       # Cumulative time (in ticks) in various power states
system.cpu.dtb.instHits                             0                       # ITB inst hits
system.cpu.dtb.instMisses                           0                       # ITB inst misses
system.cpu.dtb.readHits                             0                       # DTB read hits
system.cpu.dtb.readMisses                           0                       # DTB read misses
system.cpu.dtb.writeHits                            0                       # DTB write hits
system.cpu.dtb.writeMisses                          0                       # DTB write misses
system.cpu.dtb.inserts                              0                       # Number of times an entry is inserted into the TLB
system.cpu.dtb.flushTlb                             0                       # Number of times complete TLB was flushed
system.cpu.dtb.flushTlbMva                          0                       # Number of times TLB was flushed by MVA
system.cpu.dtb.flushTlbMvaAsid                      0                       # Number of times TLB was flushed by MVA & ASID
system.cpu.dtb.flushTlbAsid                         0                       # Number of times TLB was flushed by ASID
system.cpu.dtb.flushedEntries                       0                       # Number of entries that have been flushed from TLB
system.cpu.dtb.alignFaults                          0                       # Number of TLB faults due to alignment restrictions
system.cpu.dtb.prefetchFaults                       0                       # Number of TLB faults due to prefetch
system.cpu.dtb.domainFaults                         0                       # Number of TLB faults due to domain restrictions
system.cpu.dtb.permsFaults                          0                       # Number of TLB faults due to permissions restrictions
system.cpu.dtb.readAccesses                         0                       # DTB read accesses
system.cpu.dtb.writeAccesses                        0                       # DTB write accesses
system.cpu.dtb.instAccesses                         0                       # ITB inst accesses
system.cpu.dtb.hits                                 0                       # Total TLB (inst and data) hits
system.cpu.dtb.misses                               0                       # Total TLB (inst and data) misses
system.cpu.dtb.accesses                             0                       # Total TLB (inst and data) accesses
system.cpu.dtb.stage2_mmu.stage2_tlb.instHits            0                       # ITB inst hits
system.cpu.dtb.stage2_mmu.stage2_tlb.instMisses            0                       # ITB inst misses
system.cpu.dtb.stage2_mmu.stage2_tlb.readHits            0                       # DTB read hits
system.cpu.dtb.stage2_mmu.stage2_tlb.readMisses            0                       # DTB read misses
system.cpu.dtb.stage2_mmu.stage2_tlb.writeHits            0                       # DTB write hits
system.cpu.dtb.stage2_mmu.stage2_tlb.writeMisses            0                       # DTB write misses
system.cpu.dtb.stage2_mmu.stage2_tlb.inserts            0                       # Number of times an entry is inserted into the TLB
system.cpu.dtb.stage2_mmu.stage2_tlb.flushTlb            0                       # Number of times complete TLB was flushed
system.cpu.dtb.stage2_mmu.stage2_tlb.flushTlbMva            0                       # Number of times TLB was flushed by MVA
system.cpu.dtb.stage2_mmu.stage2_tlb.flushTlbMvaAsid            0                       # Number of times TLB was flushed by MVA & ASID
system.cpu.dtb.stage2_mmu.stage2_tlb.flushTlbAsid            0                       # Number of times TLB was flushed by ASID
system.cpu.dtb.stage2_mmu.stage2_tlb.flushedEntries            0                       # Number of entries that have been flushed from TLB
system.cpu.dtb.stage2_mmu.stage2_tlb.alignFaults            0                       # Number of TLB faults due to alignment restrictions
system.cpu.dtb.stage2_mmu.stage2_tlb.prefetchFaults            0                       # Number of TLB faults due to prefetch
system.cpu.dtb.stage2_mmu.stage2_tlb.domainFaults            0                       # Number of TLB faults due to domain restrictions
system.cpu.dtb.stage2_mmu.stage2_tlb.permsFaults            0                       # Number of TLB faults due to permissions restrictions
system.cpu.dtb.stage2_mmu.stage2_tlb.readAccesses            0                       # DTB read accesses
system.cpu.dtb.stage2_mmu.stage2_tlb.writeAccesses            0                       # DTB write accesses
system.cpu.dtb.stage2_mmu.stage2_tlb.instAccesses            0                       # ITB inst accesses
system.cpu.dtb.stage2_mmu.stage2_tlb.hits            0                       # Total TLB (inst and data) hits
system.cpu.dtb.stage2_mmu.stage2_tlb.misses            0                       # Total TLB (inst and data) misses
system.cpu.dtb.stage2_mmu.stage2_tlb.accesses            0                       # Total TLB (inst and data) accesses
system.cpu.dtb.stage2_mmu.stage2_tlb.walker.walks            0                       # Table walker walks requested
system.cpu.dtb.stage2_mmu.stage2_tlb.walker.requestOrigin_Requested::Data            0                       # Table walker requests started/completed, data/inst
system.cpu.dtb.stage2_mmu.stage2_tlb.walker.requestOrigin_Requested::Inst            0                       # Table walker requests started/completed, data/inst
system.cpu.dtb.stage2_mmu.stage2_tlb.walker.requestOrigin_Requested::total            0                       # Table walker requests started/completed, data/inst
system.cpu.dtb.stage2_mmu.stage2_tlb.walker.requestOrigin_Completed::Data            0                       # Table walker requests started/completed, data/inst
system.cpu.dtb.stage2_mmu.stage2_tlb.walker.requestOrigin_Completed::Inst            0                       # Table walker requests started/completed, data/inst
system.cpu.dtb.stage2_mmu.stage2_tlb.walker.requestOrigin_Completed::total            0                       # Table walker requests started/completed, data/inst
system.cpu.dtb.stage2_mmu.stage2_tlb.walker.requestOrigin::total            0                       # Table walker requests started/completed, data/inst
system.cpu.dtb.stage2_mmu.stage2_tlb.walker.power_state.pwrStateResidencyTicks::UNDEFINED  83847361000                       # Cumulative time (in ticks) in various power states
system.cpu.dtb.walker.walks                         0                       # Table walker walks requested
system.cpu.dtb.walker.requestOrigin_Requested::Data            0                       # Table walker requests started/completed, data/inst
system.cpu.dtb.walker.requestOrigin_Requested::Inst            0                       # Table walker requests started/completed, data/inst
system.cpu.dtb.walker.requestOrigin_Requested::total            0                       # Table walker requests started/completed, data/inst
system.cpu.dtb.walker.requestOrigin_Completed::Data            0                       # Table walker requests started/completed, data/inst
system.cpu.dtb.walker.requestOrigin_Completed::Inst            0                       # Table walker requests started/completed, data/inst
system.cpu.dtb.walker.requestOrigin_Completed::total            0                       # Table walker requests started/completed, data/inst
system.cpu.dtb.walker.requestOrigin::total            0                       # Table walker requests started/completed, data/inst
system.cpu.dtb.walker.power_state.pwrStateResidencyTicks::UNDEFINED  83847361000                       # Cumulative time (in ticks) in various power states
system.cpu.fetch2.intInstructions            42703691                       # Number of integer instructions successfully decoded
system.cpu.fetch2.fpInstructions                    0                       # Number of floating point instructions successfully decoded
system.cpu.fetch2.vecInstructions                   0                       # Number of SIMD instructions successfully decoded
system.cpu.fetch2.loadInstructions           43555104                       # Number of memory load instructions successfully decoded
system.cpu.fetch2.storeInstructions          11057161                       # Number of memory store instructions successfully decoded
system.cpu.fetch2.amoInstructions                   0                       # Number of memory atomic instructions successfully decoded
system.cpu.icache.demand_hits::.cpu.inst     10235516                       # number of demand (read+write) hits
system.cpu.icache.demand_hits::total         10235516                       # number of demand (read+write) hits
system.cpu.icache.overall_hits::.cpu.inst     10235516                       # number of overall hits
system.cpu.icache.overall_hits::total        10235516                       # number of overall hits
system.cpu.icache.demand_misses::.cpu.inst          767                       # number of demand (read+write) misses
system.cpu.icache.demand_misses::total            767                       # number of demand (read+write) misses
system.cpu.icache.overall_misses::.cpu.inst          767                       # number of overall misses
system.cpu.icache.overall_misses::total           767                       # number of overall misses
system.cpu.icache.demand_miss_latency::.cpu.inst     55185500                       # number of demand (read+write) miss cycles
system.cpu.icache.demand_miss_latency::total     55185500                       # number of demand (read+write) miss cycles
system.cpu.icache.overall_miss_latency::.cpu.inst     55185500                       # number of overall miss cycles
system.cpu.icache.overall_miss_latency::total     55185500                       # number of overall miss cycles
system.cpu.icache.demand_accesses::.cpu.inst     10236283                       # number of demand (read+write) accesses
system.cpu.icache.demand_accesses::total     10236283                       # number of demand (read+write) accesses
system.cpu.icache.overall_accesses::.cpu.inst     10236283                       # number of overall (read+write) accesses
system.cpu.icache.overall_accesses::total     10236283                       # number of overall (read+write) accesses
system.cpu.icache.demand_miss_rate::.cpu.inst     0.000075                       # miss rate for demand accesses
system.cpu.icache.demand_miss_rate::total     0.000075                       # miss rate for demand accesses
system.cpu.icache.overall_miss_rate::.cpu.inst     0.000075                       # miss rate for overall accesses
system.cpu.icache.overall_miss_rate::total     0.000075                       # miss rate for overall accesses
system.cpu.icache.demand_avg_miss_latency::.cpu.inst 71949.804433                       # average overall miss latency
system.cpu.icache.demand_avg_miss_latency::total 71949.804433                       # average overall miss latency
system.cpu.icache.overall_avg_miss_latency::.cpu.inst 71949.804433                       # average overall miss latency
system.cpu.icache.overall_avg_miss_latency::total 71949.804433                       # average overall miss latency
system.cpu.icache.blocked_cycles::no_mshrs            0                       # number of cycles access was blocked
system.cpu.icache.blocked_cycles::no_targets            0                       # number of cycles access was blocked
system.cpu.icache.blocked::no_mshrs                 0                       # number of cycles access was blocked
system.cpu.icache.blocked::no_targets               0                       # number of cycles access was blocked
system.cpu.icache.avg_blocked_cycles::no_mshrs          nan                       # average number of cycles each access was blocked
system.cpu.icache.avg_blocked_cycles::no_targets          nan                       # average number of cycles each access was blocked
system.cpu.icache.writebacks::.writebacks          325                       # number of writebacks
system.cpu.icache.writebacks::total               325                       # number of writebacks
system.cpu.icache.demand_mshr_misses::.cpu.inst          767                       # number of demand (read+write) MSHR misses
system.cpu.icache.demand_mshr_misses::total          767                       # number of demand (read+write) MSHR misses
system.cpu.icache.overall_mshr_misses::.cpu.inst          767                       # number of overall MSHR misses
system.cpu.icache.overall_mshr_misses::total          767                       # number of overall MSHR misses
system.cpu.icache.demand_mshr_miss_latency::.cpu.inst     54418500                       # number of demand (read+write) MSHR miss cycles
system.cpu.icache.demand_mshr_miss_latency::total     54418500                       # number of demand (read+write) MSHR miss cycles
system.cpu.icache.overall_mshr_miss_latency::.cpu.inst     54418500                       # number of overall MSHR miss cycles
system.cpu.icache.overall_mshr_miss_latency::total     54418500                       # number of overall MSHR miss cycles
system.cpu.icache.demand_mshr_miss_rate::.cpu.inst     0.000075                       # mshr miss rate for demand accesses
system.cpu.icache.demand_mshr_miss_rate::total     0.000075                       # mshr miss rate for demand accesses
system.cpu.icache.overall_mshr_miss_rate::.cpu.inst     0.000075                       # mshr miss rate for overall accesses
system.cpu.icache.overall_mshr_miss_rate::total     0.000075                       # mshr miss rate for overall accesses
system.cpu.icache.demand_avg_mshr_miss_latency::.cpu.inst 70949.804433                       # average overall mshr miss latency
system.cpu.icache.demand_avg_mshr_miss_latency::total 70949.804433                       # average overall mshr miss latency
system.cpu.icache.overall_avg_mshr_miss_latency::.cpu.inst 70949.804433                       # average overall mshr miss latency
system.cpu.icache.overall_avg_mshr_miss_latency::total 70949.804433                       # average overall mshr miss latency
system.cpu.icache.replacements                    325                       # number of replacements
system.cpu.icache.ReadReq_hits::.cpu.inst     10235516                       # number of ReadReq hits
system.cpu.icache.ReadReq_hits::total        10235516                       # number of ReadReq hits
system.cpu.icache.ReadReq_misses::.cpu.inst          767                       # number of ReadReq misses
system.cpu.icache.ReadReq_misses::total           767                       # number of ReadReq misses
system.cpu.icache.ReadReq_miss_latency::.cpu.inst     55185500                       # number of ReadReq miss cycles
system.cpu.icache.ReadReq_miss_latency::total     55185500                       # number of ReadReq miss cycles
system.cpu.icache.ReadReq_accesses::.cpu.inst     10236283                       # number of ReadReq accesses(hits+misses)
system.cpu.icache.ReadReq_accesses::total     10236283                       # number of ReadReq accesses(hits+misses)
system.cpu.icache.ReadReq_miss_rate::.cpu.inst     0.000075                       # miss rate for ReadReq accesses
system.cpu.icache.ReadReq_miss_rate::total     0.000075                       # miss rate for ReadReq accesses
system.cpu.icache.ReadReq_avg_miss_latency::.cpu.inst 71949.804433                       # average ReadReq miss latency
system.cpu.icache.ReadReq_avg_miss_latency::total 71949.804433                       # average ReadReq miss latency
system.cpu.icache.ReadReq_mshr_misses::.cpu.inst          767                       # number of ReadReq MSHR misses
system.cpu.icache.ReadReq_mshr_misses::total          767                       # number of ReadReq MSHR misses
system.cpu.icache.ReadReq_mshr_miss_latency::.cpu.inst     54418500                       # number of ReadReq MSHR miss cycles
system.cpu.icache.ReadReq_mshr_miss_latency::total     54418500                       # number of ReadReq MSHR miss cycles
system.cpu.icache.ReadReq_mshr_miss_rate::.cpu.inst     0.000075                       # mshr miss rate for ReadReq accesses
system.cpu.icache.ReadReq_mshr_miss_rate::total     0.000075                       # mshr miss rate for ReadReq accesses
system.cpu.icache.ReadReq_avg_mshr_miss_latency::.cpu.inst 70949.804433                       # average ReadReq mshr miss latency
system.cpu.icache.ReadReq_avg_mshr_miss_latency::total 70949.804433                       # average ReadReq mshr miss latency
system.cpu.icache.power_state.pwrStateResidencyTicks::UNDEFINED  83847361000                       # Cumulative time (in ticks) in various power states
system.cpu.icache.tags.tagsinuse           362.750241                       # Cycle average of tags in use
system.cpu.icache.tags.total_refs            10236283                       # Total number of references to valid blocks.
system.cpu.icache.tags.sampled_refs               767                       # Sample count of references to valid blocks.
system.cpu.icache.tags.avg_refs          13345.870926                       # Average number of references to valid blocks.
system.cpu.icache.tags.warmup_cycle             87500                       # Cycle when the warmup percentage was hit.
system.cpu.icache.tags.occ_blocks::.cpu.inst   362.750241                       # Average occupied blocks per requestor
system.cpu.icache.tags.occ_percent::.cpu.inst     0.708497                       # Average percentage of cache occupancy
system.cpu.icache.tags.occ_percent::total     0.708497                       # Average percentage of cache occupancy
system.cpu.icache.tags.occ_task_id_blocks::1024          442                       # Occupied blocks per task id
system.cpu.icache.tags.age_task_id_blocks_1024::3          107                       # Occupied blocks per task id
system.cpu.icache.tags.age_task_id_blocks_1024::4          335                       # Occupied blocks per task id
system.cpu.icache.tags.occ_task_id_percent::1024     0.863281                       # Percentage of cache occupancy per task id
system.cpu.icache.tags.tag_accesses          20473333                       # Number of tag accesses
system.cpu.icache.tags.data_accesses         20473333                       # Number of data accesses
system.cpu.icache.tags.power_state.pwrStateResidencyTicks::UNDEFINED  83847361000                       # Cumulative time (in ticks) in various power states
system.cpu.itb.instHits                             0                       # ITB inst hits
system.cpu.itb.instMisses                           0                       # ITB inst misses
system.cpu.itb.readHits                             0                       # DTB read hits
system.cpu.itb.readMisses                           0                       # DTB read misses
system.cpu.itb.writeHits                            0                       # DTB write hits
system.cpu.itb.writeMisses                          0                       # DTB write misses
system.cpu.itb.inserts                              0                       # Number of times an entry is inserted into the TLB
system.cpu.itb.flushTlb                             0                       # Number of times complete TLB was flushed
system.cpu.itb.flushTlbMva                          0                       # Number of times TLB was flushed by MVA
system.cpu.itb.flushTlbMvaAsid                      0                       # Number of times TLB was flushed by MVA & ASID
system.cpu.itb.flushTlbAsid                         0                       # Number of times TLB was flushed by ASID
system.cpu.itb.flushedEntries                       0                       # Number of entries that have been flushed from TLB
system.cpu.itb.alignFaults                          0                       # Number of TLB faults due to alignment restrictions
system.cpu.itb.prefetchFaults                       0                       # Number of TLB faults due to prefetch
system.cpu.itb.domainFaults                         0                       # Number of TLB faults due to domain restrictions
system.cpu.itb.permsFaults                          0                       # Number of TLB faults due to permissions restrictions
system.cpu.itb.readAccesses                         0                       # DTB read accesses
system.cpu.itb.writeAccesses                        0                       # DTB write accesses
system.cpu.itb.instAccesses                         0                       # ITB inst accesses
system.cpu.itb.hits                                 0                       # Total TLB (inst and data) hits
system.cpu.itb.misses                               0                       # Total TLB (inst and data) misses
system.cpu.itb.accesses                             0                       # Total TLB (inst and data) accesses
system.cpu.itb.stage2_mmu.stage2_tlb.instHits            0                       # ITB inst hits
system.cpu.itb.stage2_mmu.stage2_tlb.instMisses            0                       # ITB inst misses
system.cpu.itb.stage2_mmu.stage2_tlb.readHits            0                       # DTB read hits
system.cpu.itb.stage2_mmu.stage2_tlb.readMisses            0                       # DTB read misses
system.cpu.itb.stage2_mmu.stage2_tlb.writeHits            0                       # DTB write hits
system.cpu.itb.stage2_mmu.stage2_tlb.writeMisses            0                       # DTB write misses
system.cpu.itb.stage2_mmu.stage2_tlb.inserts            0                       # Number of times an entry is inserted into the TLB
system.cpu.itb.stage2_mmu.stage2_tlb.flushTlb            0                       # Number of times complete TLB was flushed
system.cpu.itb.stage2_mmu.stage2_tlb.flushTlbMva            0                       # Number of times TLB was flushed by MVA
system.cpu.itb.stage2_mmu.stage2_tlb.flushTlbMvaAsid            0                       # Number of times TLB was flushed by MVA & ASID
system.cpu.itb.stage2_mmu.stage2_tlb.flushTlbAsid            0                       # Number of times TLB was flushed by ASID
system.cpu.itb.stage2_mmu.stage2_tlb.flushedEntries            0                       # Number of entries that have been flushed from TLB
system.cpu.itb.stage2_mmu.stage2_tlb.alignFaults            0                       # Number of TLB faults due to alignment restrictions
system.cpu.itb.stage2_mmu.stage2_tlb.prefetchFaults            0                       # Number of TLB faults due to prefetch
system.cpu.itb.stage2_mmu.stage2_tlb.domainFaults            0                       # Number of TLB faults due to domain restrictions
system.cpu.itb.stage2_mmu.stage2_tlb.permsFaults            0                       # Number of TLB faults due to permissions restrictions
system.cpu.itb.stage2_mmu.stage2_tlb.readAccesses            0                       # DTB read accesses
system.cpu.itb.stage2_mmu.stage2_tlb.writeAccesses            0                       # DTB write accesses
system.cpu.itb.stage2_mmu.stage2_tlb.instAccesses            0                       # ITB inst accesses
system.cpu.itb.stage2_mmu.stage2_tlb.hits            0                       # Total TLB (inst and data) hits
system.cpu.itb.stage2_mmu.stage2_tlb.misses            0                       # Total TLB (inst and data) misses
system.cpu.itb.stage2_mmu.stage2_tlb.accesses            0                       # Total TLB (inst and data) accesses
system.cpu.itb.stage2_mmu.stage2_tlb.walker.walks            0                       # Table walker walks requested
system.cpu.itb.stage2_mmu.stage2_tlb.walker.requestOrigin_Requested::Data            0                       # Table walker requests started/completed, data/inst
system.cpu.itb.stage2_mmu.stage2_tlb.walker.requestOrigin_Requested::Inst            0                       # Table walker requests started/completed, data/inst
system.cpu.itb.stage2_mmu.stage2_tlb.walker.requestOrigin_Requested::total            0                       # Table walker requests started/completed, data/inst
system.cpu.itb.stage2_mmu.stage2_tlb.walker.requestOrigin_Completed::Data            0                       # Table walker requests started/completed, data/inst
system.cpu.itb.stage2_mmu.stage2_tlb.walker.requestOrigin_Completed::Inst            0                       # Table walker requests started/completed, data/inst
system.cpu.itb.stage2_mmu.stage2_tlb.walker.requestOrigin_Completed::total            0                       # Table walker requests started/completed, data/inst
system.cpu.itb.stage2_mmu.stage2_tlb.walker.requestOrigin::total            0                       # Table walker requests started/completed, data/inst
system.cpu.itb.stage2_mmu.stage2_tlb.walker.power_state.pwrStateResidencyTicks::UNDEFINED  83847361000                       # Cumulative time (in ticks) in various power states
system.cpu.itb.walker.walks                         0                       # Table walker walks requested
system.cpu.itb.walker.requestOrigin_Requested::Data            0                       # Table walker requests started/completed, data/inst
system.cpu.itb.walker.requestOrigin_Requested::Inst            0                       # Table walker requests started/completed, data/inst
system.cpu.itb.walker.requestOrigin_Requested::total            0                       # Table walker requests started/completed, data/inst
system.cpu.itb.walker.requestOrigin_Completed::Data            0                       # Table walker requests started/completed, data/inst
system.cpu.itb.walker.requestOrigin_Completed::Inst            0                       # Table walker requests started/completed, data/inst
system.cpu.itb.walker.requestOrigin_Completed::total            0                       # Table walker requests started/completed, data/inst
system.cpu.itb.walker.requestOrigin::total            0                       # Table walker requests started/completed, data/inst
system.cpu.itb.walker.power_state.pwrStateResidencyTicks::UNDEFINED  83847361000                       # Cumulative time (in ticks) in various power states
system.cpu.power_state.pwrStateResidencyTicks::ON  83847361000                       # Cumulative time (in ticks) in various power states
system.cpu.thread_0.numInsts                100000000                       # Number of Instructions committed
system.cpu.thread_0.numOps                  100199496                       # Number of Ops committed
system.cpu.thread_0.numMemRefs                      0                       # Number of Memory References
system.cpu_clk_domain.clock                       500                       # Clock period in ticks
system.cpu_voltage_domain.voltage                   1                       # Voltage in Volts
system.l2.demand_hits::.cpu.inst                   98                       # number of demand (read+write) hits
system.l2.demand_hits::.cpu.data               483274                       # number of demand (read+write) hits
system.l2.demand_hits::total                   483372                       # number of demand (read+write) hits
system.l2.overall_hits::.cpu.inst                  98                       # number of overall hits
system.l2.overall_hits::.cpu.data              483274                       # number of overall hits
system.l2.overall_hits::total                  483372                       # number of overall hits
system.l2.demand_misses::.cpu.inst                669                       # number of demand (read+write) misses
system.l2.demand_misses::.cpu.data             201349                       # number of demand (read+write) misses
system.l2.demand_misses::total                 202018                       # number of demand (read+write) misses
system.l2.overall_misses::.cpu.inst               669                       # number of overall misses
system.l2.overall_misses::.cpu.data            201349                       # number of overall misses
system.l2.overall_misses::total                202018                       # number of overall misses
system.l2.demand_miss_latency::.cpu.inst     52219500                       # number of demand (read+write) miss cycles
system.l2.demand_miss_latency::.cpu.data  17030035500                       # number of demand (read+write) miss cycles
system.l2.demand_miss_latency::total      17082255000                       # number of demand (read+write) miss cycles
system.l2.overall_miss_latency::.cpu.inst     52219500                       # number of overall miss cycles
system.l2.overall_miss_latency::.cpu.data  17030035500                       # number of overall miss cycles
system.l2.overall_miss_latency::total     17082255000                       # number of overall miss cycles
system.l2.demand_accesses::.cpu.inst              767                       # number of demand (read+write) accesses
system.l2.demand_accesses::.cpu.data           684623                       # number of demand (read+write) accesses
system.l2.demand_accesses::total               685390                       # number of demand (read+write) accesses
system.l2.overall_accesses::.cpu.inst             767                       # number of overall (read+write) accesses
system.l2.overall_accesses::.cpu.data          684623                       # number of overall (read+write) accesses
system.l2.overall_accesses::total              685390                       # number of overall (read+write) accesses
system.l2.demand_miss_rate::.cpu.inst        0.872229                       # miss rate for demand accesses
system.l2.demand_miss_rate::.cpu.data        0.294102                       # miss rate for demand accesses
system.l2.demand_miss_rate::total            0.294749                       # miss rate for demand accesses
system.l2.overall_miss_rate::.cpu.inst       0.872229                       # miss rate for overall accesses
system.l2.overall_miss_rate::.cpu.data       0.294102                       # miss rate for overall accesses
system.l2.overall_miss_rate::total           0.294749                       # miss rate for overall accesses
system.l2.demand_avg_miss_latency::.cpu.inst 78056.053812                       # average overall miss latency
system.l2.demand_avg_miss_latency::.cpu.data 84579.687508                       # average overall miss latency
system.l2.demand_avg_miss_latency::total 84558.083933                       # average overall miss latency
system.l2.overall_avg_miss_latency::.cpu.inst 78056.053812                       # average overall miss latency
system.l2.overall_avg_miss_latency::.cpu.data 84579.687508                       # average overall miss latency
system.l2.overall_avg_miss_latency::total 84558.083933                       # average overall miss latency
system.l2.blocked_cycles::no_mshrs                  0                       # number of cycles access was blocked
system.l2.blocked_cycles::no_targets                0                       # number of cycles access was blocked
system.l2.blocked::no_mshrs                         0                       # number of cycles access was blocked
system.l2.blocked::no_targets                       0                       # number of cycles access was blocked
system.l2.avg_blocked_cycles::no_mshrs            nan                       # average number of cycles each access was blocked
system.l2.avg_blocked_cycles::no_targets          nan                       # average number of cycles each access was blocked
system.l2.writebacks::.writebacks              111218                       # number of writebacks
system.l2.writebacks::total                    111218                       # number of writebacks
system.l2.demand_mshr_hits::.cpu.data               5                       # number of demand (read+write) MSHR hits
system.l2.demand_mshr_hits::total                   5                       # number of demand (read+write) MSHR hits
system.l2.overall_mshr_hits::.cpu.data              5                       # number of overall MSHR hits
system.l2.overall_mshr_hits::total                  5                       # number of overall MSHR hits
system.l2.demand_mshr_misses::.cpu.inst           669                       # number of demand (read+write) MSHR misses
system.l2.demand_mshr_misses::.cpu.data        201344                       # number of demand (read+write) MSHR misses
system.l2.demand_mshr_misses::total            202013                       # number of demand (read+write) MSHR misses
system.l2.overall_mshr_misses::.cpu.inst          669                       # number of overall MSHR misses
system.l2.overall_mshr_misses::.cpu.data       201344                       # number of overall MSHR misses
system.l2.overall_mshr_misses::total           202013                       # number of overall MSHR misses
system.l2.demand_mshr_miss_latency::.cpu.inst     45529500                       # number of demand (read+write) MSHR miss cycles
system.l2.demand_mshr_miss_latency::.cpu.data  15016277500                       # number of demand (read+write) MSHR miss cycles
system.l2.demand_mshr_miss_latency::total  15061807000                       # number of demand (read+write) MSHR miss cycles
system.l2.overall_mshr_miss_latency::.cpu.inst     45529500                       # number of overall MSHR miss cycles
system.l2.overall_mshr_miss_latency::.cpu.data  15016277500                       # number of overall MSHR miss cycles
system.l2.overall_mshr_miss_latency::total  15061807000                       # number of overall MSHR miss cycles
system.l2.demand_mshr_miss_rate::.cpu.inst     0.872229                       # mshr miss rate for demand accesses
system.l2.demand_mshr_miss_rate::.cpu.data     0.294095                       # mshr miss rate for demand accesses
system.l2.demand_mshr_miss_rate::total       0.294742                       # mshr miss rate for demand accesses
system.l2.overall_mshr_miss_rate::.cpu.inst     0.872229                       # mshr miss rate for overall accesses
system.l2.overall_mshr_miss_rate::.cpu.data     0.294095                       # mshr miss rate for overall accesses
system.l2.overall_mshr_miss_rate::total      0.294742                       # mshr miss rate for overall accesses
system.l2.demand_avg_mshr_miss_latency::.cpu.inst 68056.053812                       # average overall mshr miss latency
system.l2.demand_avg_mshr_miss_latency::.cpu.data 74580.208499                       # average overall mshr miss latency
system.l2.demand_avg_mshr_miss_latency::total 74558.602664                       # average overall mshr miss latency
system.l2.overall_avg_mshr_miss_latency::.cpu.inst 68056.053812                       # average overall mshr miss latency
system.l2.overall_avg_mshr_miss_latency::.cpu.data 74580.208499                       # average overall mshr miss latency
system.l2.overall_avg_mshr_miss_latency::total 74558.602664                       # average overall mshr miss latency
system.l2.replacements                         169375                       # number of replacements
system.l2.WritebackDirty_hits::.writebacks       607463                       # number of WritebackDirty hits
system.l2.WritebackDirty_hits::total           607463                       # number of WritebackDirty hits
system.l2.WritebackDirty_accesses::.writebacks       607463                       # number of WritebackDirty accesses(hits+misses)
system.l2.WritebackDirty_accesses::total       607463                       # number of WritebackDirty accesses(hits+misses)
system.l2.WritebackClean_hits::.writebacks          321                       # number of WritebackClean hits
system.l2.WritebackClean_hits::total              321                       # number of WritebackClean hits
system.l2.WritebackClean_accesses::.writebacks          321                       # number of WritebackClean accesses(hits+misses)
system.l2.WritebackClean_accesses::total          321                       # number of WritebackClean accesses(hits+misses)
system.l2.ReadExReq_hits::.cpu.data            151068                       # number of ReadExReq hits
system.l2.ReadExReq_hits::total                151068                       # number of ReadExReq hits
system.l2.ReadExReq_misses::.cpu.data          136253                       # number of ReadExReq misses
system.l2.ReadExReq_misses::total              136253                       # number of ReadExReq misses
system.l2.ReadExReq_miss_latency::.cpu.data  11825462000                       # number of ReadExReq miss cycles
system.l2.ReadExReq_miss_latency::total   11825462000                       # number of ReadExReq miss cycles
system.l2.ReadExReq_accesses::.cpu.data        287321                       # number of ReadExReq accesses(hits+misses)
system.l2.ReadExReq_accesses::total            287321                       # number of ReadExReq accesses(hits+misses)
system.l2.ReadExReq_miss_rate::.cpu.data     0.474219                       # miss rate for ReadExReq accesses
system.l2.ReadExReq_miss_rate::total         0.474219                       # miss rate for ReadExReq accesses
system.l2.ReadExReq_avg_miss_latency::.cpu.data 86790.470669                       # average ReadExReq miss latency
system.l2.ReadExReq_avg_miss_latency::total 86790.470669                       # average ReadExReq miss latency
system.l2.ReadExReq_mshr_misses::.cpu.data       136253                       # number of ReadExReq MSHR misses
system.l2.ReadExReq_mshr_misses::total         136253                       # number of ReadExReq MSHR misses
system.l2.ReadExReq_mshr_miss_latency::.cpu.data  10462942000                       # number of ReadExReq MSHR miss cycles
system.l2.ReadExReq_mshr_miss_latency::total  10462942000                       # number of ReadExReq MSHR miss cycles
system.l2.ReadExReq_mshr_miss_rate::.cpu.data     0.474219                       # mshr miss rate for ReadExReq accesses
system.l2.ReadExReq_mshr_miss_rate::total     0.474219                       # mshr miss rate for ReadExReq accesses
system.l2.ReadExReq_avg_mshr_miss_latency::.cpu.data 76790.544061                       # average ReadExReq mshr miss latency
system.l2.ReadExReq_avg_mshr_miss_latency::total 76790.544061                       # average ReadExReq mshr miss latency
system.l2.ReadCleanReq_hits::.cpu.inst             98                       # number of ReadCleanReq hits
system.l2.ReadCleanReq_hits::total                 98                       # number of ReadCleanReq hits
system.l2.ReadCleanReq_misses::.cpu.inst          669                       # number of ReadCleanReq misses
system.l2.ReadCleanReq_misses::total              669                       # number of ReadCleanReq misses
system.l2.ReadCleanReq_miss_latency::.cpu.inst     52219500                       # number of ReadCleanReq miss cycles
system.l2.ReadCleanReq_miss_latency::total     52219500                       # number of ReadCleanReq miss cycles
system.l2.ReadCleanReq_accesses::.cpu.inst          767                       # number of ReadCleanReq accesses(hits+misses)
system.l2.ReadCleanReq_accesses::total            767                       # number of ReadCleanReq accesses(hits+misses)
system.l2.ReadCleanReq_miss_rate::.cpu.inst     0.872229                       # miss rate for ReadCleanReq accesses
system.l2.ReadCleanReq_miss_rate::total      0.872229                       # miss rate for ReadCleanReq accesses
system.l2.ReadCleanReq_avg_miss_latency::.cpu.inst 78056.053812                       # average ReadCleanReq miss latency
system.l2.ReadCleanReq_avg_miss_latency::total 78056.053812                       # average ReadCleanReq miss latency
system.l2.ReadCleanReq_mshr_misses::.cpu.inst          669                       # number of ReadCleanReq MSHR misses
system.l2.ReadCleanReq_mshr_misses::total          669                       # number of ReadCleanReq MSHR misses
system.l2.ReadCleanReq_mshr_miss_latency::.cpu.inst     45529500                       # number of ReadCleanReq MSHR miss cycles
system.l2.ReadCleanReq_mshr_miss_latency::total     45529500                       # number of ReadCleanReq MSHR miss cycles
system.l2.ReadCleanReq_mshr_miss_rate::.cpu.inst     0.872229                       # mshr miss rate for ReadCleanReq accesses
system.l2.ReadCleanReq_mshr_miss_rate::total     0.872229                       # mshr miss rate for ReadCleanReq accesses
system.l2.ReadCleanReq_avg_mshr_miss_latency::.cpu.inst 68056.053812                       # average ReadCleanReq mshr miss latency
system.l2.ReadCleanReq_avg_mshr_miss_latency::total 68056.053812                       # average ReadCleanReq mshr miss latency
system.l2.ReadSharedReq_hits::.cpu.data        332206                       # number of ReadSharedReq hits
system.l2.ReadSharedReq_hits::total            332206                       # number of ReadSharedReq hits
system.l2.ReadSharedReq_misses::.cpu.data        65096                       # number of ReadSharedReq misses
system.l2.ReadSharedReq_misses::total           65096                       # number of ReadSharedReq misses
system.l2.ReadSharedReq_miss_latency::.cpu.data   5204573500                       # number of ReadSharedReq miss cycles
system.l2.ReadSharedReq_miss_latency::total   5204573500                       # number of ReadSharedReq miss cycles
system.l2.ReadSharedReq_accesses::.cpu.data       397302                       # number of ReadSharedReq accesses(hits+misses)
system.l2.ReadSharedReq_accesses::total        397302                       # number of ReadSharedReq accesses(hits+misses)
system.l2.ReadSharedReq_miss_rate::.cpu.data     0.163845                       # miss rate for ReadSharedReq accesses
system.l2.ReadSharedReq_miss_rate::total     0.163845                       # miss rate for ReadSharedReq accesses
system.l2.ReadSharedReq_avg_miss_latency::.cpu.data 79952.278174                       # average ReadSharedReq miss latency
system.l2.ReadSharedReq_avg_miss_latency::total 79952.278174                       # average ReadSharedReq miss latency
system.l2.ReadSharedReq_mshr_hits::.cpu.data            5                       # number of ReadSharedReq MSHR hits
system.l2.ReadSharedReq_mshr_hits::total            5                       # number of ReadSharedReq MSHR hits
system.l2.ReadSharedReq_mshr_misses::.cpu.data        65091                       # number of ReadSharedReq MSHR misses
system.l2.ReadSharedReq_mshr_misses::total        65091                       # number of ReadSharedReq MSHR misses
system.l2.ReadSharedReq_mshr_miss_latency::.cpu.data   4553335500                       # number of ReadSharedReq MSHR miss cycles
system.l2.ReadSharedReq_mshr_miss_latency::total   4553335500                       # number of ReadSharedReq MSHR miss cycles
system.l2.ReadSharedReq_mshr_miss_rate::.cpu.data     0.163833                       # mshr miss rate for ReadSharedReq accesses
system.l2.ReadSharedReq_mshr_miss_rate::total     0.163833                       # mshr miss rate for ReadSharedReq accesses
system.l2.ReadSharedReq_avg_mshr_miss_latency::.cpu.data 69953.380652                       # average ReadSharedReq mshr miss latency
system.l2.ReadSharedReq_avg_mshr_miss_latency::total 69953.380652                       # average ReadSharedReq mshr miss latency
system.l2.power_state.pwrStateResidencyTicks::UNDEFINED  83847361000                       # Cumulative time (in ticks) in various power states
system.l2.tags.tagsinuse                 31894.189758                       # Cycle average of tags in use
system.l2.tags.total_refs                     1369109                       # Total number of references to valid blocks.
system.l2.tags.sampled_refs                    202143                       # Sample count of references to valid blocks.
system.l2.tags.avg_refs                      6.772973                       # Average number of references to valid blocks.
system.l2.tags.warmup_cycle                     77000                       # Cycle when the warmup percentage was hit.
system.l2.tags.occ_blocks::.writebacks      44.656240                       # Average occupied blocks per requestor
system.l2.tags.occ_blocks::.cpu.inst        81.226682                       # Average occupied blocks per requestor
system.l2.tags.occ_blocks::.cpu.data     31768.306837                       # Average occupied blocks per requestor
system.l2.tags.occ_percent::.writebacks      0.001363                       # Average percentage of cache occupancy
system.l2.tags.occ_percent::.cpu.inst        0.002479                       # Average percentage of cache occupancy
system.l2.tags.occ_percent::.cpu.data        0.969492                       # Average percentage of cache occupancy
system.l2.tags.occ_percent::total            0.973333                       # Average percentage of cache occupancy
system.l2.tags.occ_task_id_blocks::1024         32768                       # Occupied blocks per task id
system.l2.tags.age_task_id_blocks_1024::0           66                       # Occupied blocks per task id
system.l2.tags.age_task_id_blocks_1024::1           35                       # Occupied blocks per task id
system.l2.tags.age_task_id_blocks_1024::2         1333                       # Occupied blocks per task id
system.l2.tags.age_task_id_blocks_1024::3        15585                       # Occupied blocks per task id
system.l2.tags.age_task_id_blocks_1024::4        15749                       # Occupied blocks per task id
system.l2.tags.occ_task_id_percent::1024            1                       # Percentage of cache occupancy per task id
system.l2.tags.tag_accesses                  11155063                       # Number of tag accesses
system.l2.tags.data_accesses                 11155063                       # Number of data accesses
system.l2.tags.power_state.pwrStateResidencyTicks::UNDEFINED  83847361000                       # Cumulative time (in ticks) in various power states
system.mem_ctrls.avgPriority_.writebacks::samples    111218.00                       # Average QoS priority value for accepted requests
system.mem_ctrls.avgPriority_.cpu.inst::samples       669.00                       # Average QoS priority value for accepted requests
system.mem_ctrls.avgPriority_.cpu.data::samples    201319.00                       # Average QoS priority value for accepted requests
system.mem_ctrls.priorityMinLatency      0.000000018750                       # per QoS priority minimum request to response latency (s)
system.mem_ctrls.priorityMaxLatency      0.003618432000                       # per QoS priority maximum request to response latency (s)
system.mem_ctrls.numReadWriteTurnArounds         6655                       # Number of turnarounds from READ to WRITE
system.mem_ctrls.numWriteReadTurnArounds         6655                       # Number of turnarounds from WRITE to READ
system.mem_ctrls.numStayReadState              526196                       # Number of times bus staying in READ state
system.mem_ctrls.numStayWriteState             104686                       # Number of times bus staying in WRITE state
system.mem_ctrls.readReqs                      202012                       # Number of read requests accepted
system.mem_ctrls.writeReqs                     111218                       # Number of write requests accepted
system.mem_ctrls.readBursts                    202012                       # Number of controller read bursts, including those serviced by the write queue
system.mem_ctrls.writeBursts                   111218                       # Number of controller write bursts, including those merged in the write queue
system.mem_ctrls.servicedByWrQ                     24                       # Number of controller read bursts serviced by the write queue
system.mem_ctrls.mergedWrBursts                     0                       # Number of controller write bursts merged with an existing one
system.mem_ctrls.neitherReadNorWriteReqs            0                       # Number of requests that are neither read nor write
system.mem_ctrls.avgRdQLen                       1.08                       # Average read queue length when enqueuing
system.mem_ctrls.avgWrQLen                      24.87                       # Average write queue length when enqueuing
system.mem_ctrls.numRdRetry                         0                       # Number of times read queue was full causing retry
system.mem_ctrls.numWrRetry                         0                       # Number of times write queue was full causing retry
system.mem_ctrls.readPktSize::0                     0                       # Read request sizes (log2)
system.mem_ctrls.readPktSize::1                     0                       # Read request sizes (log2)
system.mem_ctrls.readPktSize::2                     0                       # Read request sizes (log2)
system.mem_ctrls.readPktSize::3                     0                       # Read request sizes (log2)
system.mem_ctrls.readPktSize::4                     0                       # Read request sizes (log2)
system.mem_ctrls.readPktSize::5                     0                       # Read request sizes (log2)
system.mem_ctrls.readPktSize::6                202012                       # Read request sizes (log2)
system.mem_ctrls.writePktSize::0                    0                       # Write request sizes (log2)
[...]
system.mem_ctrls.dram.bw_write::.writebacks     84891783                       # Write bandwidth from this memory (bytes/s)
system.mem_ctrls.dram.bw_write::total        84891783                       # Write bandwidth from this memory (bytes/s)
system.mem_ctrls.dram.bw_total::.writebacks     84891783                       # Total bandwidth to/from this memory (bytes/s)
system.mem_ctrls.dram.bw_total::.cpu.inst       510642                       # Total bandwidth to/from this memory (bytes/s)
system.mem_ctrls.dram.bw_total::.cpu.data    153683453                       # Total bandwidth to/from this memory (bytes/s)
system.mem_ctrls.dram.bw_total::total       239085879                       # Total bandwidth to/from this memory (bytes/s)
system.mem_ctrls.dram.readBursts               201988                       # Number of DRAM read bursts
system.mem_ctrls.dram.writeBursts              111199                       # Number of DRAM write bursts
system.mem_ctrls.dram.perBankRdBursts::0        12822                       # Per bank write bursts
system.mem_ctrls.dram.perBankRdBursts::1        12635                       # Per bank write bursts
system.mem_ctrls.dram.perBankRdBursts::2        12659                       # Per bank write bursts
system.mem_ctrls.dram.perBankRdBursts::3        12393                       # Per bank write bursts
system.mem_ctrls.dram.perBankRdBursts::4        12608                       # Per bank write bursts
system.mem_ctrls.dram.perBankRdBursts::5        12381                       # Per bank write bursts
system.mem_ctrls.dram.perBankRdBursts::6        12464                       # Per bank write bursts
system.mem_ctrls.dram.perBankRdBursts::7        12146                       # Per bank write bursts
system.mem_ctrls.dram.perBankRdBursts::8        12615                       # Per bank write bursts
system.mem_ctrls.dram.perBankRdBursts::9        12624                       # Per bank write bursts
system.mem_ctrls.dram.perBankRdBursts::10        12800                       # Per bank write bursts
system.mem_ctrls.dram.perBankRdBursts::11        12751                       # Per bank write bursts
system.mem_ctrls.dram.perBankRdBursts::12        12809                       # Per bank write bursts
system.mem_ctrls.dram.perBankRdBursts::13        12680                       # Per bank write bursts
system.mem_ctrls.dram.perBankRdBursts::14        12830                       # Per bank write bursts
system.mem_ctrls.dram.perBankRdBursts::15        12771                       # Per bank write bursts
system.mem_ctrls.dram.perBankWrBursts::0         7042                       # Per bank write bursts
system.mem_ctrls.dram.perBankWrBursts::1         7031                       # Per bank write bursts
system.mem_ctrls.dram.perBankWrBursts::2         7038                       # Per bank write bursts
system.mem_ctrls.dram.perBankWrBursts::3         6946                       # Per bank write bursts
system.mem_ctrls.dram.perBankWrBursts::4         7147                       # Per bank write bursts
system.mem_ctrls.dram.perBankWrBursts::5         6857                       # Per bank write bursts
system.mem_ctrls.dram.perBankWrBursts::6         6798                       # Per bank write bursts
system.mem_ctrls.dram.perBankWrBursts::7         6493                       # Per bank write bursts
system.mem_ctrls.dram.perBankWrBursts::8         6882                       # Per bank write bursts
system.mem_ctrls.dram.perBankWrBursts::9         6918                       # Per bank write bursts
system.mem_ctrls.dram.perBankWrBursts::10         7010                       # Per bank write bursts
system.mem_ctrls.dram.perBankWrBursts::11         6948                       # Per bank write bursts
system.mem_ctrls.dram.perBankWrBursts::12         7006                       # Per bank write bursts
system.mem_ctrls.dram.perBankWrBursts::13         6935                       # Per bank write bursts
system.mem_ctrls.dram.perBankWrBursts::14         7059                       # Per bank write bursts
system.mem_ctrls.dram.perBankWrBursts::15         7089                       # Per bank write bursts
system.mem_ctrls.dram.totQLat              2953237250                       # Total ticks spent queuing
system.mem_ctrls.dram.totBusLat            1009940000                       # Total ticks spent in databus transfers
system.mem_ctrls.dram.totMemAccLat         6740512250                       # Total ticks spent from burst creation until serviced by the DRAM
system.mem_ctrls.dram.avgQLat                14620.85                       # Average queueing delay per DRAM burst
system.mem_ctrls.dram.avgBusLat               5000.00                       # Average bus latency per DRAM burst
system.mem_ctrls.dram.avgMemAccLat           33370.85                       # Average memory access latency per DRAM burst
system.mem_ctrls.dram.readRowHits              138879                       # Number of row buffer hits during reads
system.mem_ctrls.dram.writeRowHits              69995                       # Number of row buffer hits during writes
system.mem_ctrls.dram.readRowHitRate            68.76                       # Row buffer hit rate for reads
system.mem_ctrls.dram.writeRowHitRate           62.95                       # Row buffer hit rate for writes
system.mem_ctrls.dram.bytesPerActivate::samples       104305                       # Bytes accessed per row activation
system.mem_ctrls.dram.bytesPerActivate::mean   192.161986                       # Bytes accessed per row activation
system.mem_ctrls.dram.bytesPerActivate::gmean   112.228577                       # Bytes accessed per row activation
system.mem_ctrls.dram.bytesPerActivate::stdev   255.710630                       # Bytes accessed per row activation
system.mem_ctrls.dram.bytesPerActivate::0-127        68536     65.71%     65.71% # Bytes accessed per row activation
system.mem_ctrls.dram.bytesPerActivate::128-255        14280     13.69%     79.40% # Bytes accessed per row activation
system.mem_ctrls.dram.bytesPerActivate::256-383         2593      2.49%     81.88% # Bytes accessed per row activation
system.mem_ctrls.dram.bytesPerActivate::384-511         1581      1.52%     83.40% # Bytes accessed per row activation
system.mem_ctrls.dram.bytesPerActivate::512-639         9841      9.43%     92.83% # Bytes accessed per row activation
system.mem_ctrls.dram.bytesPerActivate::640-767         1036      0.99%     93.83% # Bytes accessed per row activation
system.mem_ctrls.dram.bytesPerActivate::768-895          467      0.45%     94.28% # Bytes accessed per row activation
system.mem_ctrls.dram.bytesPerActivate::896-1023          327      0.31%     94.59% # Bytes accessed per row activation
system.mem_ctrls.dram.bytesPerActivate::1024-1151         5644      5.41%    100.00% # Bytes accessed per row activation
system.mem_ctrls.dram.bytesPerActivate::total       104305                       # Bytes accessed per row activation
system.mem_ctrls.dram.bytesRead              12927232                       # Total number of bytes read from DRAM
system.mem_ctrls.dram.bytesWritten            7116736                       # Total number of bytes written to DRAM
system.mem_ctrls.dram.avgRdBW              154.175777                       # Average DRAM read bandwidth in MiBytes/s
system.mem_ctrls.dram.avgWrBW               84.877281                       # Average DRAM write bandwidth in MiBytes/s
system.mem_ctrls.dram.peakBW                 12800.00                       # Theoretical peak bandwidth in MiByte/s
system.mem_ctrls.dram.busUtil                    1.87                       # Data bus utilization in percentage
system.mem_ctrls.dram.busUtilRead                1.20                       # Data bus utilization in percentage for reads
system.mem_ctrls.dram.busUtilWrite               0.66                       # Data bus utilization in percentage for writes
system.mem_ctrls.dram.pageHitRate               66.69                       # Row buffer hit rate, read and write combined
system.mem_ctrls.dram.power_state.pwrStateResidencyTicks::UNDEFINED  83847361000                       # Cumulative time (in ticks) in various power states
system.mem_ctrls.dram.rank0.actEnergy       371479920                       # Energy for activate commands per rank (pJ)
system.mem_ctrls.dram.rank0.preEnergy       197427285                       # Energy for precharge commands per rank (pJ)
system.mem_ctrls.dram.rank0.readEnergy      714771120                       # Energy for read commands per rank (pJ)
system.mem_ctrls.dram.rank0.writeEnergy     288937440                       # Energy for write commands per rank (pJ)
system.mem_ctrls.dram.rank0.refreshEnergy 6618443520.000001                       # Energy for refresh commands per rank (pJ)
system.mem_ctrls.dram.rank0.actBackEnergy  21282463920                       # Energy for active background per rank (pJ)
system.mem_ctrls.dram.rank0.preBackEnergy  14275311840                       # Energy for precharge background per rank (pJ)
system.mem_ctrls.dram.rank0.actPowerDownEnergy            0                       # Energy for active power-down per rank (pJ)
system.mem_ctrls.dram.rank0.prePowerDownEnergy            0                       # Energy for precharge power-down per rank (pJ)
system.mem_ctrls.dram.rank0.selfRefreshEnergy            0                       # Energy for self refresh per rank (pJ)
system.mem_ctrls.dram.rank0.totalEnergy   43748835045                       # Total energy per rank (pJ)
system.mem_ctrls.dram.rank0.averagePower   521.767585                       # Core power per rank (mW)
system.mem_ctrls.dram.rank0.totalIdleTime            0                       # Total Idle time Per DRAM Rank
system.mem_ctrls.dram.rank0.pwrStateTime::IDLE  36894569250                       # Time in different power states
system.mem_ctrls.dram.rank0.pwrStateTime::REF   2799680000                       # Time in different power states
system.mem_ctrls.dram.rank0.pwrStateTime::SREF            0                       # Time in different power states
system.mem_ctrls.dram.rank0.pwrStateTime::PRE_PDN            0                       # Time in different power states
system.mem_ctrls.dram.rank0.pwrStateTime::ACT  44153111750                       # Time in different power states
system.mem_ctrls.dram.rank0.pwrStateTime::ACT_PDN            0                       # Time in different power states
system.mem_ctrls.dram.rank1.actEnergy       373314900                       # Energy for activate commands per rank (pJ)
system.mem_ctrls.dram.rank1.preEnergy       198410190                       # Energy for precharge commands per rank (pJ)
system.mem_ctrls.dram.rank1.readEnergy      727423200                       # Energy for read commands per rank (pJ)
system.mem_ctrls.dram.rank1.writeEnergy     291521340                       # Energy for write commands per rank (pJ)
system.mem_ctrls.dram.rank1.refreshEnergy 6618443520.000001                       # Energy for refresh commands per rank (pJ)
system.mem_ctrls.dram.rank1.actBackEnergy  22082904090                       # Energy for active background per rank (pJ)
system.mem_ctrls.dram.rank1.preBackEnergy  13601256960                       # Energy for precharge background per rank (pJ)
system.mem_ctrls.dram.rank1.actPowerDownEnergy            0                       # Energy for active power-down per rank (pJ)
system.mem_ctrls.dram.rank1.prePowerDownEnergy            0                       # Energy for precharge power-down per rank (pJ)
system.mem_ctrls.dram.rank1.selfRefreshEnergy            0                       # Energy for self refresh per rank (pJ)
system.mem_ctrls.dram.rank1.totalEnergy   43893274200                       # Total energy per rank (pJ)
system.mem_ctrls.dram.rank1.averagePower   523.490229                       # Core power per rank (mW)
system.mem_ctrls.dram.rank1.totalIdleTime            0                       # Total Idle time Per DRAM Rank
system.mem_ctrls.dram.rank1.pwrStateTime::IDLE  35134341750                       # Time in different power states
system.mem_ctrls.dram.rank1.pwrStateTime::REF   2799680000                       # Time in different power states
system.mem_ctrls.dram.rank1.pwrStateTime::SREF            0                       # Time in different power states
system.mem_ctrls.dram.rank1.pwrStateTime::PRE_PDN            0                       # Time in different power states
system.mem_ctrls.dram.rank1.pwrStateTime::ACT  45913339250                       # Time in different power states
system.mem_ctrls.dram.rank1.pwrStateTime::ACT_PDN            0                       # Time in different power states
system.mem_ctrls.power_state.pwrStateResidencyTicks::UNDEFINED  83847361000                       # Cumulative time (in ticks) in various power states
system.membus.trans_dist::ReadResp              65760                       # Transaction distribution
system.membus.trans_dist::WritebackDirty       111218                       # Transaction distribution
system.membus.trans_dist::CleanEvict            57681                       # Transaction distribution
system.membus.trans_dist::ReadExReq            136252                       # Transaction distribution
system.membus.trans_dist::ReadExResp           136252                       # Transaction distribution
system.membus.trans_dist::ReadSharedReq         65760                       # Transaction distribution
system.membus.pkt_count_system.l2.mem_side_port::system.mem_ctrls.port       572923                       # Packet count per connected requestor and responder (bytes)
system.membus.pkt_count::total                 572923                       # Packet count per connected requestor and responder (bytes)
system.membus.pkt_size_system.l2.mem_side_port::system.mem_ctrls.port     20046720                       # Cumulative packet size per connected requestor and responder (bytes)
system.membus.pkt_size::total                20046720                       # Cumulative packet size per connected requestor and responder (bytes)
system.membus.snoops                                0                       # Total snoops (count)
system.membus.snoopTraffic                          0                       # Total snoop traffic (bytes)
system.membus.snoop_fanout::samples            202012                       # Request fanout histogram
system.membus.snoop_fanout::mean                    0                       # Request fanout histogram
system.membus.snoop_fanout::stdev                   0                       # Request fanout histogram
system.membus.snoop_fanout::underflows              0      0.00%      0.00% # Request fanout histogram
system.membus.snoop_fanout::0                  202012    100.00%    100.00% # Request fanout histogram
system.membus.snoop_fanout::1                       0      0.00%    100.00% # Request fanout histogram
system.membus.snoop_fanout::overflows               0      0.00%    100.00% # Request fanout histogram
system.membus.snoop_fanout::min_value               0                       # Request fanout histogram
system.membus.snoop_fanout::max_value               0                       # Request fanout histogram
system.membus.snoop_fanout::total              202012                       # Request fanout histogram
system.membus.power_state.pwrStateResidencyTicks::UNDEFINED  83847361000                       # Cumulative time (in ticks) in various power states
system.membus.reqLayer0.occupancy           847131500                       # Layer occupancy (ticks)
system.membus.reqLayer0.utilization               1.0                       # Layer utilization (%)
system.membus.respLayer1.occupancy         1087863750                       # Layer occupancy (ticks)
system.membus.respLayer1.utilization              1.3                       # Layer utilization (%)
system.tol2bus.trans_dist::ReadResp            398069                       # Transaction distribution
system.tol2bus.trans_dist::WritebackDirty       718681                       # Transaction distribution
system.tol2bus.trans_dist::WritebackClean          325                       # Transaction distribution
system.tol2bus.trans_dist::CleanEvict          134292                       # Transaction distribution
system.tol2bus.trans_dist::ReadExReq           287321                       # Transaction distribution
system.tol2bus.trans_dist::ReadExResp          287320                       # Transaction distribution
system.tol2bus.trans_dist::ReadCleanReq           767                       # Transaction distribution
system.tol2bus.trans_dist::ReadSharedReq       397302                       # Transaction distribution
system.tol2bus.pkt_count_system.cpu.icache.mem_side_port::system.l2.cpu_side_port         1859                       # Packet count per connected requestor and responder (bytes)
system.tol2bus.pkt_count_system.cpu.dcache.mem_side_port::system.l2.cpu_side_port      2052843                       # Packet count per connected requestor and responder (bytes)
system.tol2bus.pkt_count::total               2054702                       # Packet count per connected requestor and responder (bytes)
system.tol2bus.pkt_size_system.cpu.icache.mem_side_port::system.l2.cpu_side_port        69888                       # Cumulative packet size per connected requestor and responder (bytes)
system.tol2bus.pkt_size_system.cpu.dcache.mem_side_port::system.l2.cpu_side_port     82693440                       # Cumulative packet size per connected requestor and responder (bytes)
system.tol2bus.pkt_size::total               82763328                       # Cumulative packet size per connected requestor and responder (bytes)
system.tol2bus.snoops                          169375                       # Total snoops (count)
system.tol2bus.snoopTraffic                   7117952                       # Total snoop traffic (bytes)
system.tol2bus.snoop_fanout::samples           854765                       # Request fanout histogram
system.tol2bus.snoop_fanout::mean            0.000791                       # Request fanout histogram
system.tol2bus.snoop_fanout::stdev           0.028111                       # Request fanout histogram
system.tol2bus.snoop_fanout::underflows             0      0.00%      0.00% # Request fanout histogram
system.tol2bus.snoop_fanout::0                 854089     99.92%     99.92% # Request fanout histogram
system.tol2bus.snoop_fanout::1                    676      0.08%    100.00% # Request fanout histogram
system.tol2bus.snoop_fanout::2                      0      0.00%    100.00% # Request fanout histogram
system.tol2bus.snoop_fanout::overflows              0      0.00%    100.00% # Request fanout histogram
system.tol2bus.snoop_fanout::min_value              0                       # Request fanout histogram
system.tol2bus.snoop_fanout::max_value              1                       # Request fanout histogram
system.tol2bus.snoop_fanout::total             854765                       # Request fanout histogram
system.tol2bus.power_state.pwrStateResidencyTicks::UNDEFINED  83847361000                       # Cumulative time (in ticks) in various power states
system.tol2bus.reqLayer0.occupancy         1292444500                       # Layer occupancy (ticks)
system.tol2bus.reqLayer0.utilization              1.5                       # Layer utilization (%)
system.tol2bus.respLayer0.occupancy           1150500                       # Layer occupancy (ticks)
system.tol2bus.respLayer0.utilization             0.0                       # Layer utilization (%)
system.tol2bus.respLayer1.occupancy        1026935495                       # Layer occupancy (ticks)
system.tol2bus.respLayer1.utilization             1.2                       # Layer utilization (%)
system.voltage_domain.voltage                       1                       # Voltage in Volts

---------- End Simulation Statistics   ----------
